<?xml version='1.0' encoding='ISO-8859-1'?>
<febio_spec version="4.0">
	<Module type="solid" />
	<Globals>
		<Constants>
			<T>0</T>
			<P>0</P>
			<R>8.31446</R>
			<Fc>96485.3</Fc>
		</Constants>
	</Globals>
	<Material>
		<material id="1" name="skin" type="Mooney-Rivlin">
			<k>480000.0</k>
			<pressure_model>default</pressure_model>
			<density type="math">1100</density>
			<c1 type="math">1200</c1>
			<c2 type="math">1200</c2>
		</material>
		<material id="2" name="adipose" type="Mooney-Rivlin">
			<k>425000.0</k>
			<pressure_model>default</pressure_model>
			<density type="math">911+H(0.005^2-((X-0.035)^2+(Y-0.04)^2+(Z-0)^2))*(168)</density>
			<c1 type="math">109+H(0.005^2-((X-0.035)^2+(Y-0.04)^2+(Z-0)^2))*(971)</c1>
			<c2 type="math">106+H(0.005^2-((X-0.035)^2+(Y-0.04)^2+(Z-0)^2))*(939)</c2>
		</material>
		<material id="3" name="glandular" type="Mooney-Rivlin">
			<k>425000.0</k>
			<pressure_model>default</pressure_model>
			<density type="math">1041+H(0.005^2-((X-0.035)^2+(Y-0.04)^2+(Z-0)^2))*(38)</density>
			<c1 type="math">230+H(0.005^2-((X-0.035)^2+(Y-0.04)^2+(Z-0)^2))*(920)</c1>
			<c2 type="math">195+H(0.005^2-((X-0.035)^2+(Y-0.04)^2+(Z-0)^2))*(870)</c2>
		</material>
	</Material>
	<Mesh>
		<Nodes name="Object01">
			<node id="1">0.0,1.474514954580286e-15,0.0289899989998013</node>
			<node id="2">0.0,0.06957457063968628,0.007705784859658587</node>
			<node id="3">0.0,0.0,0.07</node>
			<node id="4">0.0,0.07350000000000001,0.0</node>
			<node id="5">0.0,-0.002,0.07</node>
			<node id="6">0.0,0.003871884626591139,0.03057692565429104</node>
			<node id="7">0.0,0.007853348461269696,0.0318644707997124</node>
			<node id="8">0.0,0.01192128084678108,0.03284516079928364</node>
			<node id="9">0.0,0.016052069213727017,0.03351330317621834</node>
			<node id="10">0.0,0.02022173614121127,0.033865019656064504</node>
			<node id="11">0.0,0.02440607853528775,0.03389826867839239</node>
			<node id="12">0.0,0.02858080811734137,0.03361285724716065</node>
			<node id="13">0.0,0.0327216924069291,0.033010442050973754</node>
			<node id="14">0.0,0.03680469538073683,0.03209451984672895</node>
			<node id="15">0.0,0.04080611699118854,0.030870407162470904</node>
			<node id="16">0.0,0.04470273073486314,0.029345209437270158</node>
			<node id="17">0.0,0.04847191847219452,0.027527779777255203</node>
			<node id="18">0.0,0.05209180171588529,0.025428667567201104</node>
			<node id="19">0.0,0.0555413686259624,0.023060057235962026</node>
			<node id="20">0.0,0.058800595974323924,0.02043569753118753</node>
<!-- ... 77553 like lines cut -->
		</Nodes>
		<Elements type="tri6" name="skin_part">
			<elem id="2705">2,43,7316,67,7402,7403</elem>
			<elem id="2706">43,2,7317,67,7404,7405</elem>
			<elem id="2707">185,2,7316,195,7403,7406</elem>
			<elem id="2708">2,194,7317,205,7407,7404</elem>
			<elem id="2709">66,3,7320,91,7408,7409</elem>
			<elem id="2710">3,66,7321,91,7410,7411</elem>
			<elem id="2711">3,431,7320,543,7412,7408</elem>
			<elem id="2712">542,3,7321,655,7411,7413</elem>
			<elem id="2713">43,44,7139,68,7414,7415</elem>
			<elem id="2714">44,43,7140,68,7416,7417</elem>
			<elem id="2715">43,7139,7316,7415,7418,7402</elem>
			<elem id="2716">7140,43,7317,7416,7405,7419</elem>
			<elem id="2717">45,44,5315,69,7420,7421</elem>
			<elem id="2718">44,45,5316,69,7422,7423</elem>
			<elem id="2719">5315,44,7140,7420,7417,7424</elem>
			<elem id="2720">44,5316,7139,7423,7425,7414</elem>
			<elem id="2721">45,46,6932,70,7426,7427</elem>
			<elem id="2722">46,45,6933,70,7428,7429</elem>
			<elem id="2723">45,5315,6933,7421,7430,7428</elem>
			<elem id="2724">5316,45,6932,7422,7427,7431</elem>
<!-- ... 4918 like lines cut -->
		</Elements>
		<Elements type="tet10" name="glandular_part">
			<elem id="10040">19743,20246,19512,20434,20793,20794,20795,20796,20798,20797</elem>
			<elem id="10041">19773,20242,666,20495,20799,20800,20801,20802,20804,20803</elem>
			<elem id="10042">19576,2357,19969,20295,20805,20806,20807,20808,20810,20809</elem>
			<elem id="10043">19662,19996,1622,20065,20811,20812,20813,20814,20816,20815</elem>
			<elem id="10044">19458,20219,19688,20427,20817,20818,20819,20820,20822,20821</elem>
			<elem id="10045">19429,20113,19651,20285,20823,20824,20825,20826,20828,20827</elem>
			<elem id="10046">19458,19688,19893,20427,20819,20829,20830,20820,20821,20831</elem>
			<elem id="10047">19404,19717,19636,20030,20832,20833,20834,20835,20837,20836</elem>
			<elem id="10048">19721,20118,19547,20374,20838,20839,20840,20841,20843,20842</elem>
			<elem id="10049">19688,20219,19893,20427,20818,20844,20829,20821,20822,20831</elem>
			<elem id="10050">9,19914,19580,20143,20845,20846,20847,20848,20850,20849</elem>
			<elem id="10051">19743,20067,20246,20434,20851,20852,20793,20796,20853,20798</elem>
			<elem id="10052">19649,19919,1698,20043,20854,20855,20856,20857,20859,20858</elem>
			<elem id="10053">19463,20008,19837,20096,20860,20861,20862,20863,20865,20864</elem>
			<elem id="10054">818,19922,19597,20203,20866,20867,20868,20869,20871,20870</elem>
			<elem id="10055">19463,20008,19865,20351,20860,20872,20873,20874,20876,20875</elem>
			<elem id="10056">19410,19795,19661,20290,20877,20878,20879,20880,20882,20881</elem>
			<elem id="10057">19554,19527,19793,20179,20883,20884,20885,20886,20888,20887</elem>
			<elem id="10058">19546,20266,20103,20552,20889,20890,20891,20892,20894,20893</elem>
			<elem id="10059">19432,19546,19926,19933,20895,20896,20897,20898,20900,20899</elem>
<!-- ... 12075 like lines cut -->
		</Elements>
		<Elements type="tet10" name="adipose_part">
			<elem id="22135">33601,34006,33183,34402,37282,37283,37284,37285,37287,37286</elem>
			<elem id="22136">33204,33564,34349,34840,37288,37289,37290,37291,37293,37292</elem>
			<elem id="22137">33274,35065,34079,35587,37294,37295,37296,37297,37299,37298</elem>
			<elem id="22138">33189,33779,34306,36071,37300,37301,37302,37303,37305,37304</elem>
			<elem id="22139">33366,34340,33706,34418,37306,37307,37308,37309,37311,37310</elem>
			<elem id="22140">34030,34460,33523,36447,37312,37313,37314,37315,37317,37316</elem>
			<elem id="22141">33502,34428,33884,35125,37318,37319,37320,37321,37323,37322</elem>
			<elem id="22142">33564,34840,33204,35226,37293,37291,37288,37324,37326,37325</elem>
			<elem id="22143">33624,33372,34090,34453,37327,37328,37329,37330,37332,37331</elem>
			<elem id="22144">6146,35059,35124,35865,37333,37334,37335,37336,37338,37337</elem>
			<elem id="22145">33884,34428,33213,35125,37319,37339,37340,37322,37323,37341</elem>
			<elem id="22146">33484,33762,34123,36709,37342,37343,37344,37345,37347,37346</elem>
			<elem id="22147">7086,33515,34817,35240,37348,37349,37350,37351,37353,37352</elem>
			<elem id="22148">6674,7342,34386,34876,10930,37354,37355,37356,37358,37357</elem>
			<elem id="22149">34346,33715,34871,35783,37359,37360,37361,37362,37364,37363</elem>
			<elem id="22150">5530,35141,34964,35514,37365,37366,37367,37368,37370,37369</elem>
			<elem id="22151">33516,34608,5889,35738,37371,37372,37373,37374,37376,37375</elem>
			<elem id="22152">6952,34277,33988,34820,37377,37378,37379,37380,37382,37381</elem>
			<elem id="22153">33382,33523,35203,35671,37383,37384,37385,37386,37388,37387</elem>
			<elem id="22154">33644,33375,35336,35429,37389,37390,37391,37392,37394,37393</elem>
<!-- ... 40927 like lines cut -->
		</Elements>
		<Surface name="chest_part">
			<tri6 id="1">206,5,14748,318,15864,15865</tri6>
			<tri6 id="2">5,317,15811,430,15866,15867</tri6>
			<tri6 id="3">14748,5,15811,15864,15867,15868</tri6>
			<tri6 id="4">207,206,15777,319,15869,15870</tri6>
			<tri6 id="5">206,14748,15777,15865,15871,15869</tri6>
			<tri6 id="6">208,207,14763,320,15872,15873</tri6>
			<tri6 id="7">14763,207,15777,15872,15870,15874</tri6>
			<tri6 id="8">209,208,15779,321,15875,15876</tri6>
			<tri6 id="9">208,14763,15779,15873,15877,15875</tri6>
			<tri6 id="10">210,209,14726,322,15878,15879</tri6>
			<tri6 id="11">14726,209,15779,15878,15876,15880</tri6>
			<tri6 id="12">211,210,15776,323,15881,15882</tri6>
			<tri6 id="13">210,14726,15776,15879,15883,15881</tri6>
			<tri6 id="14">212,211,14767,324,15884,15885</tri6>
			<tri6 id="15">14767,211,15776,15884,15882,15886</tri6>
			<tri6 id="16">213,212,15785,325,15887,15888</tri6>
			<tri6 id="17">212,14767,15785,15885,15889,15887</tri6>
			<tri6 id="18">214,213,14747,326,15890,15891</tri6>
			<tri6 id="19">14747,213,15785,15890,15888,15892</tri6>
			<tri6 id="20">215,214,15762,327,15893,15894</tri6>
<!-- ... 2377 like lines cut -->
		</Surface>
		<PartList name="Mass_damping">skin_part,glandular_part,adipose_part</PartList>
		<PartList name="gravitational_acceleration">skin_part,glandular_part,adipose_part</PartList>
	</Mesh>
	<MeshDomains>
		<ShellDomain name="skin_part" mat="skin">
			<shell_thickness>0.0001</shell_thickness>
		</ShellDomain>
		<SolidDomain name="glandular_part" mat="glandular" />
		<SolidDomain name="adipose_part" mat="adipose" />
	</MeshDomains>
	<MeshData>
		<NodeData name="density_map" node_set="Object01">
			<node lid="1">911.000000</node>
			<node lid="2">911.000000</node>
			<node lid="3">911.000000</node>
			<node lid="4">1041.000000</node>
			<node lid="5">911.000000</node>
			<node lid="6">911.000000</node>
			<node lid="7">911.000000</node>
			<node lid="8">911.000000</node>
			<node lid="9">911.000000</node>
			<node lid="10">911.000000</node>
			<node lid="11">911.000000</node>
			<node lid="12">911.000000</node>
			<node lid="13">911.000000</node>
			<node lid="14">911.000000</node>
			<node lid="15">911.000000</node>
			<node lid="16">911.000000</node>
			<node lid="17">911.000000</node>
			<node lid="18">911.000000</node>
			<node lid="19">911.000000</node>
			<node lid="20">911.000000</node>
<!-- ... 77553 like lines cut -->
		</NodeData>
	</MeshData>
	<Loads>
		<body_load type="body force" elem_set="@part_list:gravitational_acceleration">
			<force lc="1">0,0,9.81</force>
		</body_load>
	</Loads>
	<Step>
		<step id="1" name="Step1">
			<Control>
				<analysis>STATIC</analysis>
				<time_steps>10.0</time_steps>
				<step_size>0.1</step_size>
				<plot_zero_state>0</plot_zero_state>
				<plot_range>0,-1</plot_range>
				<plot_level>PLOT_NEVER</plot_level>
				<output_level>OUTPUT_NEVER</output_level>
				<plot_stride>1</plot_stride>
				<output_stride>1</output_stride>
				<adaptor_re_solve>1</adaptor_re_solve>
				<time_stepper type="default">
					<max_retries>40.0</max_retries>
					<opt_iter>11.0</opt_iter>
					<dtmin>0.0</dtmin>
					<dtmax>0.1</dtmax>
					<aggressiveness>0.0</aggressiveness>
					<cutback>0.5</cutback>
					<dtforce>0.0</dtforce>
				</time_stepper>
				<solver type="solid">
					<symmetric_stiffness>symmetric</symmetric_stiffness>
					<equation_scheme>staggered</equation_scheme>
					<equation_order>default</equation_order>
					<optimize_bw>0.0</optimize_bw>
					<lstol>0.9</lstol>
					<lsmin>0.01</lsmin>
					<lsiter>5.0</lsiter>
					<ls_check_jacobians>0.0</ls_check_jacobians>
					<max_refs>15.0</max_refs>
					<check_zero_diagonal>0.0</check_zero_diagonal>
					<zero_diagonal_tol>0.0</zero_diagonal_tol>
					<force_partition>0.0</force_partition>
					<reform_each_time_step>1.0</reform_each_time_step>
					<reform_augment>0.0</reform_augment>
					<diverge_reform>1.0</diverge_reform>
					<min_residual>1e-20</min_residual>
					<max_residual>0.0</max_residual>
					<dtol>0.001</dtol>
					<etol>0.01</etol>
					<rtol>0.0</rtol>
					<rhoi>-2.0</rhoi>
					<alpha>1.0</alpha>
					<beta>0.25</beta>
					<gamma>0.25</gamma>
					<logSolve>0.0</logSolve>
					<arc_length>0.0</arc_length>
					<arc_length_scale>0.0</arc_length_scale>
					<qn_method type="BFGS">
						<max_ups>10.0</max_ups>
						<max_buffer_size>0.0</max_buffer_size>
						<cycle_buffer>1.0</cycle_buffer>
						<cmax>100000.0</cmax>
					</qn_method>
				</solver>
			</Control>
			<Boundary>
				<bc name="chest" type="zero displacement" node_set="@surface:chest_part">
					<x_dof>1</x_dof>
					<y_dof>1</y_dof>
					<z_dof>1</z_dof>
				</bc>
			</Boundary>
		</step>
		<step id="2" name="Step2">
			<Control>
				<analysis>DYNAMIC</analysis>
				<time_steps>120.0</time_steps>
				<step_size>0.01</step_size>
				<plot_zero_state>0</plot_zero_state>
				<plot_range>0,-1</plot_range>
				<plot_level>PLOT_MUST_POINTS</plot_level>
				<output_level>OUTPUT_MUST_POINTS</output_level>
				<plot_stride>1</plot_stride>
				<output_stride>1</output_stride>
				<adaptor_re_solve>1</adaptor_re_solve>
				<time_stepper type="default">
					<max_retries>20.0</max_retries>
					<opt_iter>11.0</opt_iter>
					<dtmin>0.0</dtmin>
					<dtmax lc="3">0.01</dtmax>
					<aggressiveness>0.0</aggressiveness>
					<cutback>0.5</cutback>
					<dtforce>0.0</dtforce>
				</time_stepper>
				<solver type="solid">
					<symmetric_stiffness>symmetric</symmetric_stiffness>
					<equation_scheme>staggered</equation_scheme>
					<equation_order>default</equation_order>
					<optimize_bw>0.0</optimize_bw>
					<lstol>0.9</lstol>
					<lsmin>0.01</lsmin>
					<lsiter>5.0</lsiter>
					<ls_check_jacobians>0.0</ls_check_jacobians>
					<max_refs>15.0</max_refs>
					<check_zero_diagonal>0.0</check_zero_diagonal>
					<zero_diagonal_tol>0.0</zero_diagonal_tol>
					<force_partition>0.0</force_partition>
					<reform_each_time_step>1.0</reform_each_time_step>
					<reform_augment>0.0</reform_augment>
					<diverge_reform>1.0</diverge_reform>
					<min_residual>1e-20</min_residual>
					<max_residual>0.0</max_residual>
					<dtol>0.001</dtol>
					<etol>0.01</etol>
					<rtol>0.0</rtol>
					<rhoi>-2.0</rhoi>
					<alpha>1.0</alpha>
					<beta>1.0</beta>
					<gamma>1.5</gamma>
					<logSolve>0.0</logSolve>
					<arc_length>0.0</arc_length>
					<arc_length_scale>0.0</arc_length_scale>
					<qn_method type="BFGS">
						<max_ups>10.0</max_ups>
						<max_buffer_size>0.0</max_buffer_size>
						<cycle_buffer>1.0</cycle_buffer>
						<cmax>100000.0</cmax>
					</qn_method>
				</solver>
			</Control>
			<Boundary>
				<bc name="parabolic_trajectory" type="prescribed displacement" node_set="@surface:chest_part">
					<dof>z</dof>
					<value lc="2">1</value>
					<relative>0</relative>
				</bc>
				<bc name="only_z_displacement" type="zero displacement" node_set="@surface:chest_part">
					<x_dof>1</x_dof>
					<y_dof>1</y_dof>
					<z_dof>0</z_dof>
				</bc>
			</Boundary>
			<Loads>
				<body_load type="mass damping" elem_set="@part_list:Mass_damping">
					<C>20</C>
				</body_load>
			</Loads>
		</step>
	</Step>
	<LoadData>
		<load_controller id="1" name="LC1" type="loadcurve">
			<interpolate>LINEAR</interpolate>
			<extend>CONSTANT</extend>
			<points>
				<pt>0.0,0.0</pt>
				<pt>0.1111111111111111,0.1111111111111111</pt>
				<pt>0.2222222222222222,0.2222222222222222</pt>
				<pt>0.3333333333333333,0.3333333333333333</pt>
				<pt>0.4444444444444444,0.4444444444444444</pt>
				<pt>0.5555555555555556,0.5555555555555556</pt>
				<pt>0.6666666666666666,0.6666666666666666</pt>
				<pt>0.7777777777777777,0.7777777777777777</pt>
				<pt>0.8888888888888888,0.8888888888888888</pt>
				<pt>1.0,1.0</pt>
			</points>
		</load_controller>
		<load_controller id="2" name="LC2" type="loadcurve">
			<interpolate>LINEAR</interpolate>
			<extend>CONSTANT</extend>
			<points>
				<pt>1.0,0.0</pt>
				<pt>1.0018060945639429,0.0007839999999999784</pt>
				<pt>1.0036121891278857,0.0015359999999999586</pt>
				<pt>1.0054182836918288,0.002256000000000027</pt>
				<pt>1.0072243782557717,0.002944000000000007</pt>
				<pt>1.0090304728197146,0.003599999999999988</pt>
				<pt>1.0108365673836575,0.004223999999999972</pt>
				<pt>1.0126426619476006,0.004816000000000028</pt>
				<pt>1.0144487565115434,0.005376000000000012</pt>
				<pt>1.0162548510754863,0.005903999999999996</pt>
				<pt>1.0180609456394292,0.006399999999999982</pt>
				<pt>1.019867040203372,0.006863999999999971</pt>
				<pt>1.0216731347673151,0.007296000000000013</pt>
				<pt>1.023479229331258,0.007696</pt>
				<pt>1.0252853238952009,0.008063999999999991</pt>
				<pt>1.0270914184591438,0.008399999999999982</pt>
				<pt>1.0288975130230869,0.008704000000000014</pt>
				<pt>1.0307036075870297,0.008976000000000003</pt>
				<pt>1.0325097021509726,0.009215999999999995</pt>
				<pt>1.0343157967149155,0.009423999999999991</pt>
<!-- ... 31 like lines cut -->
			</points>
		</load_controller>
		<load_controller id="3" name="LC3" type="loadcurve">
			<interpolate>LINEAR</interpolate>
			<extend>CONSTANT</extend>
			<points>
				<pt>1.0,0.01</pt>
				<pt>1.025,0.01</pt>
				<pt>1.0499999999999998,0.01</pt>
				<pt>1.0749999999999997,0.01</pt>
				<pt>1.0999999999999996,0.01</pt>
				<pt>1.1249999999999996,0.01</pt>
				<pt>1.1499999999999995,0.01</pt>
				<pt>1.1749999999999994,0.01</pt>
				<pt>1.1999999999999993,0.01</pt>
				<pt>1.2249999999999992,0.01</pt>
				<pt>1.2499999999999991,0.01</pt>
				<pt>1.274999999999999,0.01</pt>
				<pt>1.299999999999999,0.01</pt>
				<pt>1.3249999999999988,0.01</pt>
				<pt>1.3499999999999988,0.01</pt>
				<pt>1.3749999999999987,0.01</pt>
				<pt>1.3999999999999986,0.01</pt>
				<pt>1.4249999999999985,0.01</pt>
				<pt>1.4499999999999984,0.01</pt>
				<pt>1.4749999999999983,0.01</pt>
<!-- ... 29 like lines cut -->
			</points>
		</load_controller>
	</LoadData>
	<Output>
		<plotfile type="vtk" file="output\my_clean_config.vtk">
			<var type="displacement" />
			<var type="stress" />
			<var type="relative volume" />
		</plotfile>
	</Output>
</febio_spec>