<?xml version='1.0' encoding='ISO-8859-1'?>
<febio_spec version="4.0">
	<Module type="solid" />
	<Globals>
		<Constants>
			<T>0</T>
			<P>0</P>
			<R>8.31446</R>
			<Fc>96485.3</Fc>
		</Constants>
	</Globals>
	<Material>
		<material id="1" name="skin" type="Mooney-Rivlin">
			<k>600000.0</k>
			<pressure_model>default</pressure_model>
			<density type="math">1100.0</density>
			<c1 type="math">900.0</c1>
			<c2 type="math">900.0</c2>
		</material>
		<material id="2" name="adipose" type="Mooney-Rivlin">
			<k>500000.0</k>
			<pressure_model>default</pressure_model>
			<density type="math">911.0</density>
			<c1 type="math">80.0</c1>
			<c2 type="math">75.0</c2>
		</material>
		<material id="3" name="glandular" type="Mooney-Rivlin">
			<k>500000.0</k>
			<pressure_model>default</pressure_model>
			<density type="math">1041.0</density>
			<c1 type="math">180.0</c1>
			<c2 type="math">150.0</c2>
		</material>
	</Material>
	<Mesh>
		<Nodes name="Object01">
			<node id="1">0.0,-9.367506770274758e-17,0.036064471434775126</node>
			<node id="2">0.0,0.06868779865075118,0.013490230409961675</node>
			<node id="3">0.0,0.0,0.07</node>
			<node id="4">0.0,0.07350000000000001,0.0</node>
			<node id="5">0.0,-0.0025,0.07</node>
			<node id="6">0.0,0.007431571961466595,0.03900917351792766</node>
			<node id="7">0.0,0.015227592440969835,0.040775977655387936</node>
			<node id="8">0.0,0.023202582347365962,0.04132284891067694</node>
			<node id="9">0.0,0.031166804636786494,0.04063677639142075</node>
			<node id="10">0.0,0.03893077844321885,0.03873408279811316</node>
			<node id="11">0.0,0.04630978711422902,0.03566003608244048</node>
			<node id="12">0.0,0.05312827289885434,0.03148777245440309</node>
			<node id="13">0.0,0.05922401373140969,0.026316556361519437</node>
			<node id="14">0.0,0.06445198273921782,0.020269418837832794</node>
			<node id="15">0.0,0.0036589256216188366,0.03768032149206888</node>
			<node id="16">0.0,0.011295466316179935,0.04004311187576629</node>
			<node id="17">0.0,0.019204527651590524,0.04120340536005979</node>
			<node id="18">0.0,0.027197941124170046,0.04113359681211366</node>
			<node id="19">0.0,0.03508553136560988,0.03983534708262229</node>
			<node id="20">0.0,0.042679640701954166,0.03733954349166607</node>
<!-- ... 13766 like lines cut -->
		</Nodes>
		<Elements type="tri6" name="skin_part">
			<elem id="1062">2,25,2494,36,2582,2583</elem>
			<elem id="1063">25,2,2549,36,2584,2585</elem>
			<elem id="1064">109,2,2494,118,2583,2586</elem>
			<elem id="1065">2,117,2549,127,2587,2584</elem>
			<elem id="1066">3,35,2556,47,2588,2589</elem>
			<elem id="1067">35,3,2557,47,2590,2591</elem>
			<elem id="1068">3,247,2557,306,2592,2590</elem>
			<elem id="1069">305,3,2556,365,2589,2593</elem>
			<elem id="1070">25,26,2316,37,2594,2595</elem>
			<elem id="1071">26,25,2487,37,2596,2597</elem>
			<elem id="1072">25,2316,2494,2595,2598,2582</elem>
			<elem id="1073">2487,25,2549,2596,2585,2599</elem>
			<elem id="1074">27,26,2031,38,2600,2601</elem>
			<elem id="1075">26,27,2032,38,2602,2603</elem>
			<elem id="1076">2031,26,2487,2600,2597,2604</elem>
			<elem id="1077">26,2032,2316,2603,2605,2594</elem>
			<elem id="1078">27,28,2412,39,2606,2607</elem>
			<elem id="1079">28,27,2426,39,2608,2609</elem>
			<elem id="1080">27,2031,2426,2601,2610,2608</elem>
			<elem id="1081">2032,27,2412,2602,2607,2611</elem>
<!-- ... 1334 like lines cut -->
		</Elements>
		<Elements type="tet10" name="glandular_part">
			<elem id="3108">780,5892,5868,5950,6052,6053,6054,6055,6057,6056</elem>
			<elem id="3109">752,5893,5864,5940,6058,6059,6060,6061,6063,6062</elem>
			<elem id="3110">5835,5857,5874,5965,6064,6065,6066,6067,6069,6068</elem>
			<elem id="3111">407,368,417,6004,549,547,548,6070,6072,6071</elem>
			<elem id="3112">776,5894,5873,5923,6073,6074,6075,6076,6078,6077</elem>
			<elem id="3113">961,5854,14,5998,6079,6080,1073,6081,6083,6082</elem>
			<elem id="3114">407,417,5939,6004,548,6084,6085,6070,6071,6086</elem>
			<elem id="3115">5846,5902,5897,5962,6087,6088,6089,6090,6092,6091</elem>
			<elem id="3116">5832,5851,5980,5987,6093,6094,6095,6096,6098,6097</elem>
			<elem id="3117">961,14,5854,5918,1073,6080,6079,6099,6101,6100</elem>
			<elem id="3118">5837,5881,5877,5957,6102,6103,6104,6105,6107,6106</elem>
			<elem id="3119">5897,5902,5856,6022,6088,6108,6109,6110,6112,6111</elem>
			<elem id="3120">5897,5962,5902,6022,6091,6092,6088,6110,6113,6112</elem>
			<elem id="3121">14,5854,5918,5998,6080,6100,6101,6082,6083,6114</elem>
			<elem id="3122">780,5868,730,5950,6054,6115,1322,6055,6056,6116</elem>
			<elem id="3123">5885,5835,5899,5997,6117,6118,6119,6120,6122,6121</elem>
			<elem id="3124">5845,5895,5951,5966,6123,6124,6125,6126,6128,6127</elem>
			<elem id="3125">912,5915,5895,6029,6129,6130,6131,6132,6134,6133</elem>
			<elem id="3126">905,5895,5859,6029,6135,6136,6137,6138,6133,6139</elem>
			<elem id="3127">5899,5964,5885,5997,6140,6141,6119,6121,6142,6120</elem>
<!-- ... 2585 like lines cut -->
		</Elements>
		<Elements type="tet10" name="adipose_part">
			<elem id="5713">2490,8488,2243,8522,8741,8742,3820,8743,8745,8744</elem>
			<elem id="5714">2243,8488,8470,8522,8742,8746,8747,8744,8745,8748</elem>
			<elem id="5715">988,8479,835,8508,8749,8750,1825,8751,8753,8752</elem>
			<elem id="5716">8452,8538,4703,8541,8754,8755,8756,8757,8759,8758</elem>
			<elem id="5717">919,768,8485,8519,1500,8760,8761,8762,8764,8763</elem>
			<elem id="5718">4607,8530,8528,8693,8765,8766,8767,8768,8770,8769</elem>
			<elem id="5719">8543,8583,8455,8631,8771,8772,8773,8774,8776,8775</elem>
			<elem id="5720">2049,763,2048,8615,8777,8778,3039,8779,8781,8780</elem>
			<elem id="5721">2525,2240,2514,8553,4011,4012,4014,8782,8784,8783</elem>
			<elem id="5722">2073,8629,743,8680,8785,8786,8787,8788,8790,8789</elem>
			<elem id="5723">835,8479,8475,8508,8750,8791,8792,8752,8753,8793</elem>
			<elem id="5724">763,937,2048,8615,1482,8794,8778,8781,8795,8780</elem>
			<elem id="5725">8458,8520,2566,8632,8796,8797,8798,8799,8801,8800</elem>
			<elem id="5726">828,8474,8466,8556,8802,8803,8804,8805,8807,8806</elem>
			<elem id="5727">948,8519,8485,8695,8808,8763,8809,8810,8812,8811</elem>
			<elem id="5728">2062,754,2059,8564,8813,8814,3116,8815,8817,8816</elem>
			<elem id="5729">2303,8458,2566,8632,8818,8798,4277,8819,8799,8800</elem>
			<elem id="5730">4749,4702,881,4708,5794,8820,8821,5366,5802,8822</elem>
			<elem id="5731">4803,2035,4533,8661,8823,8824,4964,8825,8827,8826</elem>
			<elem id="5732">900,8528,4607,8530,8828,8767,8829,8830,8766,8765</elem>
<!-- ... 6182 like lines cut -->
		</Elements>
		<Surface name="chest_part">
			<tri6 id="1">128,5,4524,187,4822,4823</tri6>
			<tri6 id="2">5,186,4771,246,4824,4825</tri6>
			<tri6 id="3">4524,5,4771,4822,4825,4826</tri6>
			<tri6 id="4">129,128,4774,188,4827,4828</tri6>
			<tri6 id="5">128,4524,4774,4823,4829,4827</tri6>
			<tri6 id="6">130,129,4516,189,4830,4831</tri6>
			<tri6 id="7">4516,129,4774,4830,4828,4832</tri6>
			<tri6 id="8">131,130,4778,190,4833,4834</tri6>
			<tri6 id="9">130,4516,4778,4831,4835,4833</tri6>
			<tri6 id="10">132,131,4531,191,4836,4837</tri6>
			<tri6 id="11">4531,131,4778,4836,4834,4838</tri6>
			<tri6 id="12">133,132,4787,192,4839,4840</tri6>
			<tri6 id="13">132,4531,4787,4837,4841,4839</tri6>
			<tri6 id="14">134,133,4508,193,4842,4843</tri6>
			<tri6 id="15">4508,133,4787,4842,4840,4844</tri6>
			<tri6 id="16">135,134,4773,194,4845,4846</tri6>
			<tri6 id="17">134,4508,4773,4843,4847,4845</tri6>
			<tri6 id="18">136,135,4525,195,4848,4849</tri6>
			<tri6 id="19">4525,135,4773,4848,4846,4850</tri6>
			<tri6 id="20">137,136,4779,196,4851,4852</tri6>
<!-- ... 672 like lines cut -->
		</Surface>
		<PartList name="Mass_damping">skin_part,glandular_part,adipose_part</PartList>
		<PartList name="gravitational_acceleration">skin_part,glandular_part,adipose_part</PartList>
	</Mesh>
	<MeshDomains>
		<ShellDomain name="skin_part" mat="skin">
			<shell_thickness>0.0001</shell_thickness>
		</ShellDomain>
		<SolidDomain name="glandular_part" mat="glandular" />
		<SolidDomain name="adipose_part" mat="adipose" />
	</MeshDomains>
	<MeshData>
		<NodeData name="density_map" node_set="Object01">
			<node lid="1">911.000000</node>
			<node lid="2">911.000000</node>
			<node lid="3">911.000000</node>
			<node lid="4">1041.000000</node>
			<node lid="5">911.000000</node>
			<node lid="6">911.000000</node>
			<node lid="7">911.000000</node>
			<node lid="8">911.000000</node>
			<node lid="9">911.000000</node>
			<node lid="10">911.000000</node>
			<node lid="11">911.000000</node>
			<node lid="12">911.000000</node>
			<node lid="13">911.000000</node>
			<node lid="14">911.000000</node>
			<node lid="15">911.000000</node>
			<node lid="16">911.000000</node>
			<node lid="17">911.000000</node>
			<node lid="18">911.000000</node>
			<node lid="19">911.000000</node>
			<node lid="20">911.000000</node>
<!-- ... 13766 like lines cut -->
		</NodeData>
	</MeshData>
	<Loads>
		<body_load type="body force" elem_set="@part_list:gravitational_acceleration">
			<force lc="1">0,0,9.81</force>
		</body_load>
	</Loads>
	<Step>
		<step id="1" name="Step1">
			<Control>
				<analysis>STATIC</analysis>
				<time_steps>20.0</time_steps>
				<step_size>0.05</step_size>
				<plot_zero_state>0</plot_zero_state>
				<plot_range>0,-1</plot_range>
				<plot_level>PLOT_NEVER</plot_level>
				<output_level>OUTPUT_NEVER</output_level>
				<plot_stride>1</plot_stride>
				<output_stride>1</output_stride>
				<adaptor_re_solve>1</adaptor_re_solve>
				<time_stepper type="default">
					<max_retries>50.0</max_retries>
					<opt_iter>15.0</opt_iter>
					<dtmin>0.0</dtmin>
					<dtmax>0.05</dtmax>
					<aggressiveness>0.0</aggressiveness>
					<cutback>0.4</cutback>
					<dtforce>0.0</dtforce>
				</time_stepper>
				<solver type="solid">
					<symmetric_stiffness>symmetric</symmetric_stiffness>
					<equation_scheme>staggered</equation_scheme>
					<equation_order>default</equation_order>
					<optimize_bw>0.0</optimize_bw>
					<lstol>0.8</lstol>
					<lsmin>0.01</lsmin>
					<lsiter>6.0</lsiter>
					<ls_check_jacobians>1.0</ls_check_jacobians>
					<max_refs>20.0</max_refs>
					<check_zero_diagonal>0.0</check_zero_diagonal>
					<zero_diagonal_tol>0.0</zero_diagonal_tol>
					<force_partition>0.0</force_partition>
					<reform_each_time_step>1.0</reform_each_time_step>
					<reform_augment>0.0</reform_augment>
					<diverge_reform>1.0</diverge_reform>
					<min_residual>1e-20</min_residual>
					<max_residual>0.0</max_residual>
					<dtol>0.001</dtol>
					<etol>0.005</etol>
					<rtol>0.0</rtol>
					<rhoi>-2.0</rhoi>
					<alpha>1.0</alpha>
					<beta>0.25</beta>
					<gamma>0.25</gamma>
					<logSolve>0.0</logSolve>
					<arc_length>0.0</arc_length>
					<arc_length_scale>0.0</arc_length_scale>
					<qn_method type="BFGS">
						<max_ups>12.0</max_ups>
						<max_buffer_size>0.0</max_buffer_size>
						<cycle_buffer>1.0</cycle_buffer>
						<cmax>100000.0</cmax>
					</qn_method>
				</solver>
			</Control>
			<Boundary>
				<bc name="chest" type="zero displacement" node_set="@surface:chest_part">
					<x_dof>1</x_dof>
					<y_dof>1</y_dof>
					<z_dof>1</z_dof>
				</bc>
			</Boundary>
		</step>
		<step id="2" name="Step2">
			<Control>
				<analysis>DYNAMIC</analysis>
				<time_steps>200.0</time_steps>
				<step_size>0.0005</step_size>
				<plot_zero_state>0</plot_zero_state>
				<plot_range>0,-1</plot_range>
				<plot_level>PLOT_MUST_POINTS</plot_level>
				<output_level>OUTPUT_MUST_POINTS</output_level>
				<plot_stride>1</plot_stride>
				<output_stride>1</output_stride>
				<adaptor_re_solve>1</adaptor_re_solve>
				<time_stepper type="default">
					<max_retries>40.0</max_retries>
					<opt_iter>15.0</opt_iter>
					<dtmin>0.0</dtmin>
					<dtmax lc="3">0.0005</dtmax>
					<aggressiveness>0.0</aggressiveness>
					<cutback>0.4</cutback>
					<dtforce>0.0</dtforce>
				</time_stepper>
				<solver type="solid">
					<symmetric_stiffness>symmetric</symmetric_stiffness>
					<equation_scheme>staggered</equation_scheme>
					<equation_order>default</equation_order>
					<optimize_bw>0.0</optimize_bw>
					<lstol>0.8</lstol>
					<lsmin>0.01</lsmin>
					<lsiter>6.0</lsiter>
					<ls_check_jacobians>1.0</ls_check_jacobians>
					<max_refs>20.0</max_refs>
					<check_zero_diagonal>0.0</check_zero_diagonal>
					<zero_diagonal_tol>0.0</zero_diagonal_tol>
					<force_partition>0.0</force_partition>
					<reform_each_time_step>1.0</reform_each_time_step>
					<reform_augment>0.0</reform_augment>
					<diverge_reform>1.0</diverge_reform>
					<min_residual>1e-20</min_residual>
					<max_residual>0.0</max_residual>
					<dtol>0.001</dtol>
					<etol>0.005</etol>
					<rtol>0.0</rtol>
					<rhoi>-2.0</rhoi>
					<alpha>1.0</alpha>
					<beta>0.5</beta>
					<gamma>1.0</gamma>
					<logSolve>0.0</logSolve>
					<arc_length>0.0</arc_length>
					<arc_length_scale>0.0</arc_length_scale>
					<qn_method type="BFGS">
						<max_ups>12.0</max_ups>
						<max_buffer_size>0.0</max_buffer_size>
						<cycle_buffer>1.0</cycle_buffer>
						<cmax>100000.0</cmax>
					</qn_method>
				</solver>
			</Control>
			<Boundary>
				<bc name="parabolic_trajectory" type="prescribed displacement" node_set="@surface:chest_part">
					<dof>z</dof>
					<value lc="2">1</value>
					<relative>0</relative>
				</bc>
				<bc name="only_z_displacement" type="zero displacement" node_set="@surface:chest_part">
					<x_dof>1</x_dof>
					<y_dof>1</y_dof>
					<z_dof>0</z_dof>
				</bc>
			</Boundary>
			<Loads>
				<body_load type="mass damping" elem_set="@part_list:Mass_damping">
					<C>20</C>
				</body_load>
			</Loads>
		</step>
	</Step>
	<LoadData>
		<load_controller id="1" name="LC1" type="loadcurve">
			<interpolate>LINEAR</interpolate>
			<extend>CONSTANT</extend>
			<points>
				<pt>0.0,0.0</pt>
				<pt>0.005025125628140704,0.005025125628140704</pt>
				<pt>0.010050251256281407,0.010050251256281407</pt>
				<pt>0.01507537688442211,0.01507537688442211</pt>
				<pt>0.020100502512562814,0.020100502512562814</pt>
				<pt>0.02512562814070352,0.02512562814070352</pt>
				<pt>0.03015075376884422,0.03015075376884422</pt>
				<pt>0.035175879396984924,0.035175879396984924</pt>
				<pt>0.04020100502512563,0.04020100502512563</pt>
				<pt>0.04522613065326633,0.04522613065326633</pt>
				<pt>0.05025125628140704,0.05025125628140704</pt>
				<pt>0.05527638190954774,0.05527638190954774</pt>
				<pt>0.06030150753768844,0.06030150753768844</pt>
				<pt>0.06532663316582915,0.06532663316582915</pt>
				<pt>0.07035175879396985,0.07035175879396985</pt>
				<pt>0.07537688442211056,0.07537688442211056</pt>
				<pt>0.08040201005025126,0.08040201005025126</pt>
				<pt>0.08542713567839195,0.08542713567839195</pt>
				<pt>0.09045226130653267,0.09045226130653267</pt>
				<pt>0.09547738693467336,0.09547738693467336</pt>
<!-- ... 180 like lines cut -->
			</points>
		</load_controller>
		<load_controller id="2" name="LC2" type="loadcurve">
			<interpolate>LINEAR</interpolate>
			<extend>CONSTANT</extend>
			<points>
				<pt>1.0,0.0</pt>
				<pt>1.0018060945639429,0.0007839999999999784</pt>
				<pt>1.0036121891278857,0.0015359999999999586</pt>
				<pt>1.0054182836918288,0.002256000000000027</pt>
				<pt>1.0072243782557717,0.002944000000000007</pt>
				<pt>1.0090304728197146,0.003599999999999988</pt>
				<pt>1.0108365673836575,0.004223999999999972</pt>
				<pt>1.0126426619476006,0.004816000000000028</pt>
				<pt>1.0144487565115434,0.005376000000000012</pt>
				<pt>1.0162548510754863,0.005903999999999996</pt>
				<pt>1.0180609456394292,0.006399999999999982</pt>
				<pt>1.019867040203372,0.006863999999999971</pt>
				<pt>1.0216731347673151,0.007296000000000013</pt>
				<pt>1.023479229331258,0.007696</pt>
				<pt>1.0252853238952009,0.008063999999999991</pt>
				<pt>1.0270914184591438,0.008399999999999982</pt>
				<pt>1.0288975130230869,0.008704000000000014</pt>
				<pt>1.0307036075870297,0.008976000000000003</pt>
				<pt>1.0325097021509726,0.009215999999999995</pt>
				<pt>1.0343157967149155,0.009423999999999991</pt>
<!-- ... 31 like lines cut -->
			</points>
		</load_controller>
		<load_controller id="3" name="LC3" type="loadcurve">
			<interpolate>LINEAR</interpolate>
			<extend>CONSTANT</extend>
			<points>
				<pt>1.0,0.005</pt>
				<pt>1.025,0.005</pt>
				<pt>1.0499999999999998,0.005</pt>
				<pt>1.0749999999999997,0.005</pt>
				<pt>1.0999999999999996,0.005</pt>
				<pt>1.1249999999999996,0.005</pt>
				<pt>1.1499999999999995,0.005</pt>
				<pt>1.1749999999999994,0.005</pt>
				<pt>1.1999999999999993,0.005</pt>
				<pt>1.2249999999999992,0.005</pt>
				<pt>1.2499999999999991,0.005</pt>
				<pt>1.274999999999999,0.005</pt>
				<pt>1.299999999999999,0.005</pt>
				<pt>1.3249999999999988,0.005</pt>
				<pt>1.3499999999999988,0.005</pt>
				<pt>1.3749999999999987,0.005</pt>
				<pt>1.3999999999999986,0.005</pt>
				<pt>1.4249999999999985,0.005</pt>
				<pt>1.4499999999999984,0.005</pt>
				<pt>1.4749999999999983,0.005</pt>
<!-- ... 29 like lines cut -->
			</points>
		</load_controller>
	</LoadData>
	<Output>
		<plotfile type="vtk" file="C:\Users\20223231\ews_fem_clean\output\overnight_hetero.vtk">
			<var type="displacement" />
			<var type="stress" />
			<var type="relative volume" />
			<var type="relative volume" />
			<var type="Lagrange strain" />
			<var type="J" />
			<var type="c1" />
			<var type="c2" />
			<var type="density" />
		</plotfile>
	</Output>
</febio_spec>