<?xml version='1.0' encoding='ISO-8859-1'?>
<febio_spec version="4.0">
	<Module type="solid" />
	<Globals>
		<Constants>
			<T>0</T>
			<P>0</P>
			<R>8.31446</R>
			<Fc>96485.3</Fc>
		</Constants>
	</Globals>
	<Material>
		<material id="1" name="skin" type="Mooney-Rivlin">
			<k>480000.0</k>
			<pressure_model>default</pressure_model>
			<density type="math">1100.0</density>
			<c1 type="math">1200.0</c1>
			<c2 type="math">1200.0</c2>
		</material>
		<material id="2" name="adipose" type="Mooney-Rivlin">
			<k>425000.0</k>
			<pressure_model>default</pressure_model>
			<density type="math">911.0</density>
			<c1 type="math">109.0+(30.0)*(1-exp(-((X-0.0)^2+(Y-0.0)^2+(Z-0.0)^2)/(0.055^2)))</c1>
			<c2 type="math">106.0+(25.0)*(1-exp(-((X-0.0)^2+(Y-0.0)^2+(Z-0.0)^2)/(0.055^2)))</c2>
		</material>
		<material id="3" name="glandular" type="Mooney-Rivlin">
			<k>425000.0</k>
			<pressure_model>default</pressure_model>
			<density type="math">911.0</density>
			<c1 type="math">230.0</c1>
			<c2 type="math">195.0</c2>
		</material>
	</Material>
	<Mesh>
		<Nodes name="Object01">
			<node id="1">0.0,1.474514954580286e-15,0.0289899989998013</node>
			<node id="2">0.0,0.06957457063968628,0.007705784859658587</node>
			<node id="3">0.0,0.0,0.07</node>
			<node id="4">0.0,0.07350000000000001,0.0</node>
			<node id="5">0.0,-0.002,0.07</node>
			<node id="6">0.0,0.005282444688720984,0.031071556645134096</node>
			<node id="7">0.0,0.010751559933510405,0.03259664108851279</node>
			<node id="8">0.0,0.016348898930237284,0.033548954207158574</node>
			<node id="9">0.0,0.022014644585758688,0.03391831891468225</node>
			<node id="10">0.0,0.027688248765363188,0.03370078792057195</node>
			<node id="11">0.0,0.03330907935263512,0.03289868591370995</node>
			<node id="12">0.0,0.038817068206807054,0.0315205847191157</node>
			<node id="13">0.0,0.04415335309307189,0.029581211693407373</node>
			<node id="14">0.0,0.04926090672573823,0.02710129233793213</node>
			<node id="15">0.0,0.05408514620183097,0.024107328811512212</node>
			<node id="16">0.0,0.05857451631230276,0.02063131670977456</node>
			<node id="17">0.0,0.06268104049718327,0.016710403137759084</node>
			<node id="18">0.0,0.06636083355677248,0.012386489729881576</node>
			<node id="19">0.0,0.002614306335225875,0.030099083559672345</node>
			<node id="20">0.0,0.00799728189313816,0.03190481838603618</node>
<!-- ... 35153 like lines cut -->
		</Nodes>
		<Elements type="tri6" name="skin_part">
			<elem id="1602">33,2,4041,51,4296,4297</elem>
			<elem id="1603">2,33,4042,51,4298,4299</elem>
			<elem id="1604">141,2,4042,148,4299,4300</elem>
			<elem id="1605">2,147,4041,155,4301,4296</elem>
			<elem id="1606">3,50,4241,69,4302,4303</elem>
			<elem id="1607">50,3,4242,69,4304,4305</elem>
			<elem id="1608">3,327,4242,412,4306,4304</elem>
			<elem id="1609">411,3,4241,497,4303,4307</elem>
			<elem id="1610">33,34,3135,52,4308,4309</elem>
			<elem id="1611">34,33,3702,52,4310,4311</elem>
			<elem id="1612">33,3135,4042,4309,4312,4298</elem>
			<elem id="1613">3702,33,4041,4310,4297,4313</elem>
			<elem id="1614">35,34,3116,53,4314,4315</elem>
			<elem id="1615">34,35,3117,53,4316,4317</elem>
			<elem id="1616">3116,34,3702,4314,4311,4318</elem>
			<elem id="1617">34,3117,3135,4317,4319,4308</elem>
			<elem id="1618">36,35,4038,54,4320,4321</elem>
			<elem id="1619">35,36,4053,54,4322,4323</elem>
			<elem id="1620">35,3116,4038,4315,4324,4320</elem>
			<elem id="1621">3117,35,4053,4316,4323,4325</elem>
<!-- ... 2720 like lines cut -->
		</Elements>
		<Elements type="tet10" name="glandular_part">
			<elem id="5742">11197,11246,11044,11329,11480,11481,11482,11483,11485,11484</elem>
			<elem id="5743">10977,11130,11310,11321,11486,11487,11488,11489,11491,11490</elem>
			<elem id="5744">10970,11169,11083,11307,11492,11493,11494,11495,11497,11496</elem>
			<elem id="5745">995,11105,11038,11188,11498,11499,11500,11501,11503,11502</elem>
			<elem id="5746">11110,11235,10997,11285,11504,11505,11506,11507,11509,11508</elem>
			<elem id="5747">587,554,11074,11296,731,11510,11511,11512,11514,11513</elem>
			<elem id="5748">587,11074,11190,11296,11511,11515,11516,11512,11513,11517</elem>
			<elem id="5749">1356,11187,11022,11218,11518,11519,11520,11521,11523,11522</elem>
			<elem id="5750">11033,11246,11075,11252,11524,11525,11526,11527,11529,11528</elem>
			<elem id="5751">10980,11075,11033,11246,11530,11526,11531,11532,11525,11524</elem>
			<elem id="5752">11080,11153,11053,11360,11533,11534,11535,11536,11538,11537</elem>
			<elem id="5753">1465,11065,1003,11115,11539,11540,1898,11541,11543,11542</elem>
			<elem id="5754">1451,11055,11099,11111,11544,11545,11546,11547,11549,11548</elem>
			<elem id="5755">11103,11182,11011,11342,11550,11551,11552,11553,11555,11554</elem>
			<elem id="5756">11150,11299,11149,11467,11556,11557,11558,11559,11561,11560</elem>
			<elem id="5757">11197,11198,11044,11246,11562,11563,11482,11480,11564,11481</elem>
			<elem id="5758">1367,11298,11248,11356,11565,11566,11567,11568,11570,11569</elem>
			<elem id="5759">11016,11101,11057,11228,11571,11572,11573,11574,11576,11575</elem>
			<elem id="5760">10997,11177,11110,11285,11577,11578,11506,11508,11579,11507</elem>
			<elem id="5761">11083,11148,10970,11307,11580,11581,11494,11496,11582,11495</elem>
<!-- ... 5051 like lines cut -->
		</Elements>
		<Elements type="tet10" name="adipose_part">
			<elem id="10813">16394,16957,16523,17328,17997,17998,17999,18000,18002,18001</elem>
			<elem id="10814">16991,17450,16879,17696,18003,18004,18005,18006,18008,18007</elem>
			<elem id="10815">16879,16991,16934,17450,18005,18009,18010,18004,18003,18011</elem>
			<elem id="10816">4166,16916,16572,17385,18012,18013,18014,18015,18017,18016</elem>
			<elem id="10817">1412,16792,16538,17191,18018,18019,18020,18021,18023,18022</elem>
			<elem id="10818">3347,3346,16594,16878,6035,18024,18025,18026,18028,18027</elem>
			<elem id="10819">3347,3346,3340,16594,6035,6031,6036,18025,18024,18029</elem>
			<elem id="10820">16396,17257,17172,17347,18030,18031,18032,18033,18035,18034</elem>
			<elem id="10821">16527,16746,16417,16761,18036,18037,18038,18039,18041,18040</elem>
			<elem id="10822">16643,16885,17100,17576,18042,18043,18044,18045,18047,18046</elem>
			<elem id="10823">16792,16798,16602,17932,18048,18049,18050,18051,18053,18052</elem>
			<elem id="10824">16444,16934,16879,16991,18054,18010,18055,18056,18009,18005</elem>
			<elem id="10825">16420,16622,16750,16908,18057,18058,18059,18060,18062,18061</elem>
			<elem id="10826">17052,17316,16759,17762,18063,18064,18065,18066,18068,18067</elem>
			<elem id="10827">1414,17074,16741,17388,18069,18070,18071,18072,18074,18073</elem>
			<elem id="10828">16860,17040,16596,17773,18075,18076,18077,18078,18080,18079</elem>
			<elem id="10829">1374,16608,1153,16839,18081,18082,2670,18083,18085,18084</elem>
			<elem id="10830">16792,16602,17368,17932,18050,18086,18087,18051,18052,18088</elem>
			<elem id="10831">8637,17302,16985,17725,18089,18090,18091,18092,18094,18093</elem>
			<elem id="10832">16428,16952,16613,16998,18095,18096,18097,18098,18100,18099</elem>
<!-- ... 18289 like lines cut -->
		</Elements>
		<Surface name="chest_part">
			<tri6 id="1">156,5,8853,241,8911,8912</tri6>
			<tri6 id="2">5,240,8902,326,8913,8914</tri6>
			<tri6 id="3">8853,5,8902,8911,8914,8915</tri6>
			<tri6 id="4">157,156,8263,242,8916,8917</tri6>
			<tri6 id="5">8263,156,8853,8916,8912,8918</tri6>
			<tri6 id="6">158,157,8825,243,8919,8920</tri6>
			<tri6 id="7">157,8263,8825,8917,8921,8919</tri6>
			<tri6 id="8">159,158,8861,244,8922,8923</tri6>
			<tri6 id="9">158,8825,8861,8920,8924,8922</tri6>
			<tri6 id="10">160,159,8273,245,8925,8926</tri6>
			<tri6 id="11">8273,159,8861,8925,8923,8927</tri6>
			<tri6 id="12">161,160,8877,246,8928,8929</tri6>
			<tri6 id="13">160,8273,8877,8926,8930,8928</tri6>
			<tri6 id="14">162,161,8829,247,8931,8932</tri6>
			<tri6 id="15">8829,161,8877,8931,8929,8933</tri6>
			<tri6 id="16">163,162,8254,248,8934,8935</tri6>
			<tri6 id="17">8254,162,8829,8934,8932,8936</tri6>
			<tri6 id="18">164,163,8895,249,8937,8938</tri6>
			<tri6 id="19">163,8254,8895,8935,8939,8937</tri6>
			<tri6 id="20">165,164,8851,250,8940,8941</tri6>
<!-- ... 1380 like lines cut -->
		</Surface>
		<PartList name="Mass_damping">skin_part,glandular_part,adipose_part</PartList>
		<PartList name="gravitational_acceleration">skin_part,glandular_part,adipose_part</PartList>
	</Mesh>
	<MeshDomains>
		<ShellDomain name="skin_part" mat="skin">
			<shell_thickness>0.0001</shell_thickness>
		</ShellDomain>
		<SolidDomain name="glandular_part" mat="glandular" />
		<SolidDomain name="adipose_part" mat="adipose" />
	</MeshDomains>
	<MeshData>
		<NodeData name="density_map" node_set="Object01">
			<node lid="1">911.000000</node>
			<node lid="2">911.000000</node>
			<node lid="3">911.000000</node>
			<node lid="4">911.000000</node>
			<node lid="5">911.000000</node>
			<node lid="6">911.000000</node>
			<node lid="7">911.000000</node>
			<node lid="8">911.000000</node>
			<node lid="9">911.000000</node>
			<node lid="10">911.000000</node>
			<node lid="11">911.000000</node>
			<node lid="12">911.000000</node>
			<node lid="13">911.000000</node>
			<node lid="14">911.000000</node>
			<node lid="15">911.000000</node>
			<node lid="16">911.000000</node>
			<node lid="17">911.000000</node>
			<node lid="18">911.000000</node>
			<node lid="19">911.000000</node>
			<node lid="20">911.000000</node>
<!-- ... 35153 like lines cut -->
		</NodeData>
	</MeshData>
	<Loads>
		<body_load type="body force" elem_set="@part_list:gravitational_acceleration">
			<force lc="1">0,0,9.81</force>
		</body_load>
	</Loads>
	<Step>
		<step id="1" name="Step1">
			<Control>
				<analysis>STATIC</analysis>
				<time_steps>10.0</time_steps>
				<step_size>0.1</step_size>
				<plot_zero_state>0</plot_zero_state>
				<plot_range>0,-1</plot_range>
				<plot_level>PLOT_NEVER</plot_level>
				<output_level>OUTPUT_NEVER</output_level>
				<plot_stride>1</plot_stride>
				<output_stride>1</output_stride>
				<adaptor_re_solve>1</adaptor_re_solve>
				<time_stepper type="default">
					<max_retries>40.0</max_retries>
					<opt_iter>11.0</opt_iter>
					<dtmin>0.0</dtmin>
					<dtmax>0.1</dtmax>
					<aggressiveness>0.0</aggressiveness>
					<cutback>0.5</cutback>
					<dtforce>0.0</dtforce>
				</time_stepper>
				<solver type="solid">
					<symmetric_stiffness>symmetric</symmetric_stiffness>
					<equation_scheme>staggered</equation_scheme>
					<equation_order>default</equation_order>
					<optimize_bw>0.0</optimize_bw>
					<lstol>0.9</lstol>
					<lsmin>0.01</lsmin>
					<lsiter>5.0</lsiter>
					<ls_check_jacobians>0.0</ls_check_jacobians>
					<max_refs>15.0</max_refs>
					<check_zero_diagonal>0.0</check_zero_diagonal>
					<zero_diagonal_tol>0.0</zero_diagonal_tol>
					<force_partition>0.0</force_partition>
					<reform_each_time_step>1.0</reform_each_time_step>
					<reform_augment>0.0</reform_augment>
					<diverge_reform>1.0</diverge_reform>
					<min_residual>1e-20</min_residual>
					<max_residual>0.0</max_residual>
					<dtol>0.001</dtol>
					<etol>0.01</etol>
					<rtol>0.0</rtol>
					<rhoi>-2.0</rhoi>
					<alpha>1.0</alpha>
					<beta>0.25</beta>
					<gamma>0.25</gamma>
					<logSolve>0.0</logSolve>
					<arc_length>0.0</arc_length>
					<arc_length_scale>0.0</arc_length_scale>
					<qn_method type="BFGS">
						<max_ups>10.0</max_ups>
						<max_buffer_size>0.0</max_buffer_size>
						<cycle_buffer>1.0</cycle_buffer>
						<cmax>100000.0</cmax>
					</qn_method>
				</solver>
			</Control>
			<Boundary>
				<bc name="chest" type="zero displacement" node_set="@surface:chest_part">
					<x_dof>1</x_dof>
					<y_dof>1</y_dof>
					<z_dof>1</z_dof>
				</bc>
			</Boundary>
		</step>
		<step id="2" name="Step2">
			<Control>
				<analysis>DYNAMIC</analysis>
				<time_steps>120.0</time_steps>
				<step_size>0.01</step_size>
				<plot_zero_state>0</plot_zero_state>
				<plot_range>0,-1</plot_range>
				<plot_level>PLOT_MUST_POINTS</plot_level>
				<output_level>OUTPUT_MUST_POINTS</output_level>
				<plot_stride>1</plot_stride>
				<output_stride>1</output_stride>
				<adaptor_re_solve>1</adaptor_re_solve>
				<time_stepper type="default">
					<max_retries>20.0</max_retries>
					<opt_iter>11.0</opt_iter>
					<dtmin>0.0</dtmin>
					<dtmax lc="3">0.01</dtmax>
					<aggressiveness>0.0</aggressiveness>
					<cutback>0.5</cutback>
					<dtforce>0.0</dtforce>
				</time_stepper>
				<solver type="solid">
					<symmetric_stiffness>symmetric</symmetric_stiffness>
					<equation_scheme>staggered</equation_scheme>
					<equation_order>default</equation_order>
					<optimize_bw>0.0</optimize_bw>
					<lstol>0.9</lstol>
					<lsmin>0.01</lsmin>
					<lsiter>5.0</lsiter>
					<ls_check_jacobians>0.0</ls_check_jacobians>
					<max_refs>15.0</max_refs>
					<check_zero_diagonal>0.0</check_zero_diagonal>
					<zero_diagonal_tol>0.0</zero_diagonal_tol>
					<force_partition>0.0</force_partition>
					<reform_each_time_step>1.0</reform_each_time_step>
					<reform_augment>0.0</reform_augment>
					<diverge_reform>1.0</diverge_reform>
					<min_residual>1e-20</min_residual>
					<max_residual>0.0</max_residual>
					<dtol>0.001</dtol>
					<etol>0.01</etol>
					<rtol>0.0</rtol>
					<rhoi>-2.0</rhoi>
					<alpha>1.0</alpha>
					<beta>1.0</beta>
					<gamma>1.5</gamma>
					<logSolve>0.0</logSolve>
					<arc_length>0.0</arc_length>
					<arc_length_scale>0.0</arc_length_scale>
					<qn_method type="BFGS">
						<max_ups>10.0</max_ups>
						<max_buffer_size>0.0</max_buffer_size>
						<cycle_buffer>1.0</cycle_buffer>
						<cmax>100000.0</cmax>
					</qn_method>
				</solver>
			</Control>
			<Boundary>
				<bc name="parabolic_trajectory" type="prescribed displacement" node_set="@surface:chest_part">
					<dof>z</dof>
					<value lc="2">1</value>
					<relative>0</relative>
				</bc>
				<bc name="only_z_displacement" type="zero displacement" node_set="@surface:chest_part">
					<x_dof>1</x_dof>
					<y_dof>1</y_dof>
					<z_dof>0</z_dof>
				</bc>
			</Boundary>
			<Loads>
				<body_load type="mass damping" elem_set="@part_list:Mass_damping">
					<C>20</C>
				</body_load>
			</Loads>
		</step>
	</Step>
	<LoadData>
		<load_controller id="1" name="LC1" type="loadcurve">
			<interpolate>LINEAR</interpolate>
			<extend>CONSTANT</extend>
			<points>
				<pt>0.0,0.0</pt>
				<pt>0.1111111111111111,0.1111111111111111</pt>
				<pt>0.2222222222222222,0.2222222222222222</pt>
				<pt>0.3333333333333333,0.3333333333333333</pt>
				<pt>0.4444444444444444,0.4444444444444444</pt>
				<pt>0.5555555555555556,0.5555555555555556</pt>
				<pt>0.6666666666666666,0.6666666666666666</pt>
				<pt>0.7777777777777777,0.7777777777777777</pt>
				<pt>0.8888888888888888,0.8888888888888888</pt>
				<pt>1.0,1.0</pt>
			</points>
		</load_controller>
		<load_controller id="2" name="LC2" type="loadcurve">
			<interpolate>LINEAR</interpolate>
			<extend>CONSTANT</extend>
			<points>
				<pt>1.0,0.0</pt>
				<pt>1.0018060945639429,0.0007839999999999784</pt>
				<pt>1.0036121891278857,0.0015359999999999586</pt>
				<pt>1.0054182836918288,0.002256000000000027</pt>
				<pt>1.0072243782557717,0.002944000000000007</pt>
				<pt>1.0090304728197146,0.003599999999999988</pt>
				<pt>1.0108365673836575,0.004223999999999972</pt>
				<pt>1.0126426619476006,0.004816000000000028</pt>
				<pt>1.0144487565115434,0.005376000000000012</pt>
				<pt>1.0162548510754863,0.005903999999999996</pt>
				<pt>1.0180609456394292,0.006399999999999982</pt>
				<pt>1.019867040203372,0.006863999999999971</pt>
				<pt>1.0216731347673151,0.007296000000000013</pt>
				<pt>1.023479229331258,0.007696</pt>
				<pt>1.0252853238952009,0.008063999999999991</pt>
				<pt>1.0270914184591438,0.008399999999999982</pt>
				<pt>1.0288975130230869,0.008704000000000014</pt>
				<pt>1.0307036075870297,0.008976000000000003</pt>
				<pt>1.0325097021509726,0.009215999999999995</pt>
				<pt>1.0343157967149155,0.009423999999999991</pt>
<!-- ... 31 like lines cut -->
			</points>
		</load_controller>
		<load_controller id="3" name="LC3" type="loadcurve">
			<interpolate>LINEAR</interpolate>
			<extend>CONSTANT</extend>
			<points>
				<pt>1.0,0.01</pt>
				<pt>1.025,0.01</pt>
				<pt>1.0499999999999998,0.01</pt>
				<pt>1.0749999999999997,0.01</pt>
				<pt>1.0999999999999996,0.01</pt>
				<pt>1.1249999999999996,0.01</pt>
				<pt>1.1499999999999995,0.01</pt>
				<pt>1.1749999999999994,0.01</pt>
				<pt>1.1999999999999993,0.01</pt>
				<pt>1.2249999999999992,0.01</pt>
				<pt>1.2499999999999991,0.01</pt>
				<pt>1.274999999999999,0.01</pt>
				<pt>1.299999999999999,0.01</pt>
				<pt>1.3249999999999988,0.01</pt>
				<pt>1.3499999999999988,0.01</pt>
				<pt>1.3749999999999987,0.01</pt>
				<pt>1.3999999999999986,0.01</pt>
				<pt>1.4249999999999985,0.01</pt>
				<pt>1.4499999999999984,0.01</pt>
				<pt>1.4749999999999983,0.01</pt>
<!-- ... 29 like lines cut -->
			</points>
		</load_controller>
	</LoadData>
	<Output>
		<plotfile type="vtk" file="/Users/ryanengels/Documents/limebv-ews_fem_pipeline-e5fe835fd1bf/heterogeneous_c/output/heterogeneous_c.vtk">
			<var type="displacement" />
			<var type="stress" />
			<var type="relative volume" />
			<var type="density_map" />
		</plotfile>
	</Output>
</febio_spec>