<?xml version='1.0' encoding='ISO-8859-1'?>
<febio_spec version="4.0">
	<Module type="solid" />
	<Globals>
		<Constants>
			<T>0</T>
			<P>0</P>
			<R>8.31446</R>
			<Fc>96485.3</Fc>
		</Constants>
	</Globals>
	<Material>
		<material id="1" name="skin" type="Mooney-Rivlin">
			<k>480000.0</k>
			<pressure_model>default</pressure_model>
			<density type="math">1100</density>
			<c1 type="math">1200</c1>
			<c2 type="math">1200</c2>
		</material>
		<material id="2" name="adipose" type="Mooney-Rivlin">
			<k>425000.0</k>
			<pressure_model>default</pressure_model>
			<density type="math">911</density>
			<c1 type="math">109</c1>
			<c2 type="math">106</c2>
		</material>
		<material id="3" name="glandular" type="Mooney-Rivlin">
			<k>425000.0</k>
			<pressure_model>default</pressure_model>
			<density type="math">1041+(35)*exp(-((X-0.000301289013)^2+(Y-0.031788280956)^2+(Z+0.004028883368)^2)/(0.003955^2))+(35)*exp(-((X-0.000872373774)^2+(Y-0.029799349415)^2+(Z+0.008617384675)^2)/(0.00371^2))+(35)*exp(-((X-0.000110741749)^2+(Y-0.028536800883)^2+(Z+0.013538320653)^2)/(0.003465^2))+(35)*exp(-((X+0.000686700362)^2+(Y-0.027025457598)^2+(Z+0.018345393833)^2)/(0.00322^2))+(35)*exp(-((X-0.0
			<c1 type="math">230+(70)*exp(-((X-0.000301289013)^2+(Y-0.031788280956)^2+(Z+0.004028883368)^2)/(0.003955^2))+(70)*exp(-((X-0.000872373774)^2+(Y-0.029799349415)^2+(Z+0.008617384675)^2)/(0.00371^2))+(70)*exp(-((X-0.000110741749)^2+(Y-0.028536800883)^2+(Z+0.013538320653)^2)/(0.003465^2))+(70)*exp(-((X+0.000686700362)^2+(Y-0.027025457598)^2+(Z+0.018345393833)^2)/(0.00322^2))+(70)*exp(-((X-0.0000491
			<c2 type="math">195+(55)*exp(-((X-0.000301289013)^2+(Y-0.031788280956)^2+(Z+0.004028883368)^2)/(0.003955^2))+(55)*exp(-((X-0.000872373774)^2+(Y-0.029799349415)^2+(Z+0.008617384675)^2)/(0.00371^2))+(55)*exp(-((X-0.000110741749)^2+(Y-0.028536800883)^2+(Z+0.013538320653)^2)/(0.003465^2))+(55)*exp(-((X+0.000686700362)^2+(Y-0.027025457598)^2+(Z+0.018345393833)^2)/(0.00322^2))+(55)*exp(-((X-0.0000491
		</material>
	</Material>
	<Mesh>
		<Nodes name="Object01">
			<node id="1">0.0,-5.186823193170653e-16,0.03334605738044147</node>
			<node id="2">0.0,0.0669462234993082,0.020450016116878196</node>
			<node id="3">0.0,0.0,0.07</node>
			<node id="4">0.0,0.07938000000000002,0.0</node>
			<node id="5">0.0,-0.002,0.07</node>
			<node id="6">0.0,0.006148534826890262,0.03579849164187922</node>
			<node id="7">0.0,0.01253607272201424,0.03753580967911857</node>
			<node id="8">0.0,0.019079740735742055,0.03853547124698954</node>
			<node id="9">0.0,0.025694640261036527,0.03878450657464755</node>
			<node id="10">0.0,0.03229494852171007,0.03827968463747812</node>
			<node id="11">0.0,0.03879503205100192,0.03702755507693277</node>
			<node id="12">0.0,0.04511055771402437,0.03504436322442153</node>
			<node id="13">0.0,0.05115958685949304,0.03235583933175616</node>
			<node id="14">0.0,0.05686363840503948,0.028996864742702026</node>
			<node id="15">0.0,0.06214870706346562,0.02501101933678315</node>
			<node id="16">0.0,0.0030393212395809707,0.03465988858932227</node>
			<node id="17">0.0,0.009317547711001014,0.036758170433527984</node>
			<node id="18">0.0,0.01579366196501024,0.03812888502569564</node>
			<node id="19">0.0,0.02238364184797469,0.038754248493037574</node>
			<node id="20">0.0,0.029001987895176464,0.038626147268796165</node>
<!-- ... 22564 like lines cut -->
		</Nodes>
		<Elements type="tri6" name="skin_part">
			<elem id="1444">27,2,3491,39,3575,3576</elem>
			<elem id="1445">2,27,3492,39,3577,3578</elem>
			<elem id="1446">121,2,3492,140,3578,3579</elem>
			<elem id="1447">2,139,3491,159,3580,3575</elem>
			<elem id="1448">3,38,3539,51,3581,3582</elem>
			<elem id="1449">38,3,3540,51,3583,3584</elem>
			<elem id="1450">3,301,3540,371,3585,3583</elem>
			<elem id="1451">370,3,3539,441,3582,3586</elem>
			<elem id="1452">28,27,3240,40,3587,3588</elem>
			<elem id="1453">27,28,3241,40,3589,3590</elem>
			<elem id="1454">3240,27,3491,3587,3576,3591</elem>
			<elem id="1455">27,3241,3492,3590,3592,3577</elem>
			<elem id="1456">29,28,3243,41,3593,3594</elem>
			<elem id="1457">28,29,3251,41,3595,3596</elem>
			<elem id="1458">28,3240,3243,3588,3597,3593</elem>
			<elem id="1459">3241,28,3251,3589,3596,3598</elem>
			<elem id="1460">30,29,2773,42,3599,3600</elem>
			<elem id="1461">29,30,2774,42,3601,3602</elem>
			<elem id="1462">2773,29,3243,3599,3594,3603</elem>
			<elem id="1463">29,2774,3251,3602,3604,3595</elem>
<!-- ... 1897 like lines cut -->
		</Elements>
		<Elements type="tet10" name="glandular_part">
			<elem id="4320">8210,8329,477,8383,8602,8603,8604,8605,8607,8606</elem>
			<elem id="4321">477,8210,8383,8496,8604,8605,8606,8608,8610,8609</elem>
			<elem id="4322">8270,8355,1193,8408,8611,8612,8613,8614,8616,8615</elem>
			<elem id="4323">8245,8268,876,8568,8617,8618,8619,8620,8622,8621</elem>
			<elem id="4324">1232,1057,8260,8341,2483,8623,8624,8625,8627,8626</elem>
			<elem id="4325">8250,8174,8364,8485,8628,8629,8630,8631,8633,8632</elem>
			<elem id="4326">8233,8269,8214,8381,8634,8635,8636,8637,8639,8638</elem>
			<elem id="4327">8175,8259,8200,8349,8640,8641,8642,8643,8645,8644</elem>
			<elem id="4328">8325,8383,8178,8584,8646,8647,8648,8649,8651,8650</elem>
			<elem id="4329">8240,1193,8355,8408,8652,8612,8653,8654,8615,8616</elem>
			<elem id="4330">8284,8325,8247,8546,8655,8656,8657,8658,8660,8659</elem>
			<elem id="4331">914,8254,8323,8448,8661,8662,8663,8664,8666,8665</elem>
			<elem id="4332">1080,1193,8270,8355,2468,8613,8667,8668,8612,8611</elem>
			<elem id="4333">477,8329,8210,8496,8603,8602,8604,8608,8669,8610</elem>
			<elem id="4334">8173,8334,8277,8348,8670,8671,8672,8673,8675,8674</elem>
			<elem id="4335">8219,902,8440,8472,8676,8677,8678,8679,8681,8680</elem>
			<elem id="4336">2635,8425,8286,8563,8682,8683,8684,8685,8687,8686</elem>
			<elem id="4337">902,8219,900,8472,8676,8688,1734,8681,8679,8689</elem>
			<elem id="4338">8412,8422,974,8507,8690,8691,8692,8693,8695,8694</elem>
			<elem id="4339">8242,8286,8261,8386,8696,8697,8698,8699,8701,8700</elem>
<!-- ... 4400 like lines cut -->
		</Elements>
		<Elements type="tet10" name="adipose_part">
			<elem id="8740">12882,13012,985,13137,13539,13540,13541,13542,13544,13543</elem>
			<elem id="8741">12958,13187,12920,13274,13545,13546,13547,13548,13550,13549</elem>
			<elem id="8742">13026,13117,12865,13463,13551,13552,13553,13554,13556,13555</elem>
			<elem id="8743">12859,13187,12958,13274,13557,13545,13558,13559,13550,13548</elem>
			<elem id="8744">12871,13315,12883,13460,13560,13561,13562,13563,13565,13564</elem>
			<elem id="8745">2878,12909,12995,13167,13566,13567,13568,13569,13571,13570</elem>
			<elem id="8746">12871,12967,12883,13315,13572,13573,13562,13560,13574,13561</elem>
			<elem id="8747">12890,13018,12860,13032,13575,13576,13577,13578,13580,13579</elem>
			<elem id="8748">12890,13032,12860,13051,13578,13579,13577,13581,13583,13582</elem>
			<elem id="8749">12871,12967,12888,12999,13572,13584,13585,13586,13588,13587</elem>
			<elem id="8750">2878,12995,12909,13411,13568,13567,13566,13589,13591,13590</elem>
			<elem id="8751">12865,13026,12984,13117,13553,13592,13593,13552,13551,13594</elem>
			<elem id="8752">13168,3558,13341,13349,13595,13596,13597,13598,13600,13599</elem>
			<elem id="8753">13032,13207,1084,13231,13601,13602,13603,13604,13606,13605</elem>
			<elem id="8754">12852,12966,13110,13329,13607,13608,13609,13610,13612,13611</elem>
			<elem id="8755">12947,13009,2987,13130,13613,13614,13615,13616,13618,13617</elem>
			<elem id="8756">6480,6632,6461,13284,7680,7679,7677,13619,13621,13620</elem>
			<elem id="8757">3073,13123,12988,13280,13622,13623,13624,13625,13627,13626</elem>
			<elem id="8758">12999,13055,941,13126,13628,13629,13630,13631,13633,13632</elem>
			<elem id="8759">2973,12980,13129,13334,13634,13635,13636,13637,13639,13638</elem>
<!-- ... 10347 like lines cut -->
		</Elements>
		<Surface name="chest_part">
			<tri6 id="1">160,5,6340,230,6765,6766</tri6>
			<tri6 id="2">5,229,6706,300,6767,6768</tri6>
			<tri6 id="3">6340,5,6706,6765,6768,6769</tri6>
			<tri6 id="4">161,160,6717,231,6770,6771</tri6>
			<tri6 id="5">160,6340,6717,6766,6772,6770</tri6>
			<tri6 id="6">162,161,6333,232,6773,6774</tri6>
			<tri6 id="7">6333,161,6717,6773,6771,6775</tri6>
			<tri6 id="8">163,162,6716,233,6776,6777</tri6>
			<tri6 id="9">162,6333,6716,6774,6778,6776</tri6>
			<tri6 id="10">164,163,6348,234,6779,6780</tri6>
			<tri6 id="11">6348,163,6716,6779,6777,6781</tri6>
			<tri6 id="12">165,164,6745,235,6782,6783</tri6>
			<tri6 id="13">164,6348,6745,6780,6784,6782</tri6>
			<tri6 id="14">166,165,6739,236,6785,6786</tri6>
			<tri6 id="15">6739,165,6745,6785,6783,6787</tri6>
			<tri6 id="16">167,166,6322,237,6788,6789</tri6>
			<tri6 id="17">6322,166,6739,6788,6786,6790</tri6>
			<tri6 id="18">168,167,6718,238,6791,6792</tri6>
			<tri6 id="19">167,6322,6718,6789,6793,6791</tri6>
			<tri6 id="20">169,168,6350,239,6794,6795</tri6>
<!-- ... 939 like lines cut -->
		</Surface>
		<PartList name="Mass_damping">skin_part,glandular_part,adipose_part</PartList>
		<PartList name="gravitational_acceleration">skin_part,glandular_part,adipose_part</PartList>
	</Mesh>
	<MeshDomains>
		<ShellDomain name="skin_part" mat="skin">
			<shell_thickness>0.0001</shell_thickness>
		</ShellDomain>
		<SolidDomain name="glandular_part" mat="glandular" />
		<SolidDomain name="adipose_part" mat="adipose" />
	</MeshDomains>
	<MeshData>
		<NodeData name="density_map" node_set="Object01">
			<node lid="1">911.000000</node>
			<node lid="2">911.000000</node>
			<node lid="3">911.000000</node>
			<node lid="4">1041.000000</node>
			<node lid="5">911.000000</node>
			<node lid="6">911.000000</node>
			<node lid="7">911.000000</node>
			<node lid="8">911.000000</node>
			<node lid="9">911.000000</node>
			<node lid="10">911.000000</node>
			<node lid="11">911.000000</node>
			<node lid="12">911.000000</node>
			<node lid="13">911.000000</node>
			<node lid="14">911.000000</node>
			<node lid="15">911.000000</node>
			<node lid="16">911.000000</node>
			<node lid="17">911.000000</node>
			<node lid="18">911.000000</node>
			<node lid="19">911.000000</node>
			<node lid="20">911.000000</node>
<!-- ... 22564 like lines cut -->
		</NodeData>
	</MeshData>
	<Loads>
		<body_load type="body force" elem_set="@part_list:gravitational_acceleration">
			<force lc="1">0,0,9.81</force>
		</body_load>
	</Loads>
	<Step>
		<step id="1" name="Step1">
			<Control>
				<analysis>STATIC</analysis>
				<time_steps>10.0</time_steps>
				<step_size>0.1</step_size>
				<plot_zero_state>0</plot_zero_state>
				<plot_range>0,-1</plot_range>
				<plot_level>PLOT_NEVER</plot_level>
				<output_level>OUTPUT_NEVER</output_level>
				<plot_stride>1</plot_stride>
				<output_stride>1</output_stride>
				<adaptor_re_solve>1</adaptor_re_solve>
				<time_stepper type="default">
					<max_retries>40.0</max_retries>
					<opt_iter>11.0</opt_iter>
					<dtmin>0.0</dtmin>
					<dtmax>0.1</dtmax>
					<aggressiveness>0.0</aggressiveness>
					<cutback>0.5</cutback>
					<dtforce>0.0</dtforce>
				</time_stepper>
				<solver type="solid">
					<symmetric_stiffness>symmetric</symmetric_stiffness>
					<equation_scheme>staggered</equation_scheme>
					<equation_order>default</equation_order>
					<optimize_bw>0.0</optimize_bw>
					<lstol>0.9</lstol>
					<lsmin>0.01</lsmin>
					<lsiter>5.0</lsiter>
					<ls_check_jacobians>0.0</ls_check_jacobians>
					<max_refs>15.0</max_refs>
					<check_zero_diagonal>0.0</check_zero_diagonal>
					<zero_diagonal_tol>0.0</zero_diagonal_tol>
					<force_partition>0.0</force_partition>
					<reform_each_time_step>1.0</reform_each_time_step>
					<reform_augment>0.0</reform_augment>
					<diverge_reform>1.0</diverge_reform>
					<min_residual>1e-20</min_residual>
					<max_residual>0.0</max_residual>
					<dtol>0.001</dtol>
					<etol>0.01</etol>
					<rtol>0.0</rtol>
					<rhoi>-2.0</rhoi>
					<alpha>1.0</alpha>
					<beta>0.25</beta>
					<gamma>0.25</gamma>
					<logSolve>0.0</logSolve>
					<arc_length>0.0</arc_length>
					<arc_length_scale>0.0</arc_length_scale>
					<qn_method type="BFGS">
						<max_ups>10.0</max_ups>
						<max_buffer_size>0.0</max_buffer_size>
						<cycle_buffer>1.0</cycle_buffer>
						<cmax>100000.0</cmax>
					</qn_method>
				</solver>
			</Control>
			<Boundary>
				<bc name="chest" type="zero displacement" node_set="@surface:chest_part">
					<x_dof>1</x_dof>
					<y_dof>1</y_dof>
					<z_dof>1</z_dof>
				</bc>
			</Boundary>
		</step>
		<step id="2" name="Step2">
			<Control>
				<analysis>DYNAMIC</analysis>
				<time_steps>120.0</time_steps>
				<step_size>0.01</step_size>
				<plot_zero_state>0</plot_zero_state>
				<plot_range>0,-1</plot_range>
				<plot_level>PLOT_MUST_POINTS</plot_level>
				<output_level>OUTPUT_MUST_POINTS</output_level>
				<plot_stride>1</plot_stride>
				<output_stride>1</output_stride>
				<adaptor_re_solve>1</adaptor_re_solve>
				<time_stepper type="default">
					<max_retries>20.0</max_retries>
					<opt_iter>11.0</opt_iter>
					<dtmin>0.0</dtmin>
					<dtmax lc="3">0.01</dtmax>
					<aggressiveness>0.0</aggressiveness>
					<cutback>0.5</cutback>
					<dtforce>0.0</dtforce>
				</time_stepper>
				<solver type="solid">
					<symmetric_stiffness>symmetric</symmetric_stiffness>
					<equation_scheme>staggered</equation_scheme>
					<equation_order>default</equation_order>
					<optimize_bw>0.0</optimize_bw>
					<lstol>0.9</lstol>
					<lsmin>0.01</lsmin>
					<lsiter>5.0</lsiter>
					<ls_check_jacobians>0.0</ls_check_jacobians>
					<max_refs>15.0</max_refs>
					<check_zero_diagonal>0.0</check_zero_diagonal>
					<zero_diagonal_tol>0.0</zero_diagonal_tol>
					<force_partition>0.0</force_partition>
					<reform_each_time_step>1.0</reform_each_time_step>
					<reform_augment>0.0</reform_augment>
					<diverge_reform>1.0</diverge_reform>
					<min_residual>1e-20</min_residual>
					<max_residual>0.0</max_residual>
					<dtol>0.001</dtol>
					<etol>0.01</etol>
					<rtol>0.0</rtol>
					<rhoi>-2.0</rhoi>
					<alpha>1.0</alpha>
					<beta>1.0</beta>
					<gamma>1.5</gamma>
					<logSolve>0.0</logSolve>
					<arc_length>0.0</arc_length>
					<arc_length_scale>0.0</arc_length_scale>
					<qn_method type="BFGS">
						<max_ups>10.0</max_ups>
						<max_buffer_size>0.0</max_buffer_size>
						<cycle_buffer>1.0</cycle_buffer>
						<cmax>100000.0</cmax>
					</qn_method>
				</solver>
			</Control>
			<Boundary>
				<bc name="parabolic_trajectory" type="prescribed displacement" node_set="@surface:chest_part">
					<dof>z</dof>
					<value lc="2">1</value>
					<relative>0</relative>
				</bc>
				<bc name="only_z_displacement" type="zero displacement" node_set="@surface:chest_part">
					<x_dof>1</x_dof>
					<y_dof>1</y_dof>
					<z_dof>0</z_dof>
				</bc>
			</Boundary>
			<Loads>
				<body_load type="mass damping" elem_set="@part_list:Mass_damping">
					<C>20</C>
				</body_load>
			</Loads>
		</step>
	</Step>
	<LoadData>
		<load_controller id="1" name="LC1" type="loadcurve">
			<interpolate>LINEAR</interpolate>
			<extend>CONSTANT</extend>
			<points>
				<pt>0.0,0.0</pt>
				<pt>0.1111111111111111,0.1111111111111111</pt>
				<pt>0.2222222222222222,0.2222222222222222</pt>
				<pt>0.3333333333333333,0.3333333333333333</pt>
				<pt>0.4444444444444444,0.4444444444444444</pt>
				<pt>0.5555555555555556,0.5555555555555556</pt>
				<pt>0.6666666666666666,0.6666666666666666</pt>
				<pt>0.7777777777777777,0.7777777777777777</pt>
				<pt>0.8888888888888888,0.8888888888888888</pt>
				<pt>1.0,1.0</pt>
			</points>
		</load_controller>
		<load_controller id="2" name="LC2" type="loadcurve">
			<interpolate>LINEAR</interpolate>
			<extend>CONSTANT</extend>
			<points>
				<pt>1.0,0.0</pt>
				<pt>1.0018060945639429,0.0007839999999999784</pt>
				<pt>1.0036121891278857,0.0015359999999999586</pt>
				<pt>1.0054182836918288,0.002256000000000027</pt>
				<pt>1.0072243782557717,0.002944000000000007</pt>
				<pt>1.0090304728197146,0.003599999999999988</pt>
				<pt>1.0108365673836575,0.004223999999999972</pt>
				<pt>1.0126426619476006,0.004816000000000028</pt>
				<pt>1.0144487565115434,0.005376000000000012</pt>
				<pt>1.0162548510754863,0.005903999999999996</pt>
				<pt>1.0180609456394292,0.006399999999999982</pt>
				<pt>1.019867040203372,0.006863999999999971</pt>
				<pt>1.0216731347673151,0.007296000000000013</pt>
				<pt>1.023479229331258,0.007696</pt>
				<pt>1.0252853238952009,0.008063999999999991</pt>
				<pt>1.0270914184591438,0.008399999999999982</pt>
				<pt>1.0288975130230869,0.008704000000000014</pt>
				<pt>1.0307036075870297,0.008976000000000003</pt>
				<pt>1.0325097021509726,0.009215999999999995</pt>
				<pt>1.0343157967149155,0.009423999999999991</pt>
<!-- ... 31 like lines cut -->
			</points>
		</load_controller>
		<load_controller id="3" name="LC3" type="loadcurve">
			<interpolate>LINEAR</interpolate>
			<extend>CONSTANT</extend>
			<points>
				<pt>1.0,0.01</pt>
				<pt>1.025,0.01</pt>
				<pt>1.0499999999999998,0.01</pt>
				<pt>1.0749999999999997,0.01</pt>
				<pt>1.0999999999999996,0.01</pt>
				<pt>1.1249999999999996,0.01</pt>
				<pt>1.1499999999999995,0.01</pt>
				<pt>1.1749999999999994,0.01</pt>
				<pt>1.1999999999999993,0.01</pt>
				<pt>1.2249999999999992,0.01</pt>
				<pt>1.2499999999999991,0.01</pt>
				<pt>1.274999999999999,0.01</pt>
				<pt>1.299999999999999,0.01</pt>
				<pt>1.3249999999999988,0.01</pt>
				<pt>1.3499999999999988,0.01</pt>
				<pt>1.3749999999999987,0.01</pt>
				<pt>1.3999999999999986,0.01</pt>
				<pt>1.4249999999999985,0.01</pt>
				<pt>1.4499999999999984,0.01</pt>
				<pt>1.4749999999999983,0.01</pt>
<!-- ... 29 like lines cut -->
			</points>
		</load_controller>
	</LoadData>
	<Output>
		<plotfile type="vtk" file="runs\heavy_case\output\heavy_case.vtk">
			<var type="displacement" />
			<var type="stress" />
			<var type="relative volume" />
			<var type="relative volume" />
			<var type="Lagrange strain" />
			<var type="J" />
			<var type="c1" />
			<var type="c2" />
			<var type="density" />
		</plotfile>
	</Output>
</febio_spec>