<?xml version='1.0' encoding='ISO-8859-1'?>
<febio_spec version="4.0">
	<Module type="solid" />
	<Globals>
		<Constants>
			<T>0</T>
			<P>0</P>
			<R>8.31446</R>
			<Fc>96485.3</Fc>
		</Constants>
	</Globals>
	<Material>
		<material id="1" name="skin" type="Mooney-Rivlin">
			<k>550000.0</k>
			<pressure_model>default</pressure_model>
			<density type="math">1100.0</density>
			<c1 type="math">900.0</c1>
			<c2 type="math">900.0</c2>
		</material>
		<material id="2" name="adipose" type="Mooney-Rivlin">
			<k>450000.0</k>
			<pressure_model>default</pressure_model>
			<density type="math">911.0</density>
			<c1 type="math">80.0</c1>
			<c2 type="math">75.0</c2>
		</material>
		<material id="3" name="glandular" type="Mooney-Rivlin">
			<k>450000.0</k>
			<pressure_model>default</pressure_model>
			<density type="math">1041.0</density>
			<c1 type="math">180.0</c1>
			<c2 type="math">150.0</c2>
		</material>
	</Material>
	<Mesh>
		<Nodes name="Object01">
			<node id="1">0.0,1.474514954580286e-15,0.0289899989998013</node>
			<node id="2">0.0,0.06957457063968628,0.007705784859658587</node>
			<node id="3">0.0,0.0,0.07</node>
			<node id="4">0.0,0.07350000000000001,0.0</node>
			<node id="5">0.0,-0.0025,0.07</node>
			<node id="6">0.0,0.006757936706529185,0.031543471636518494</node>
			<node id="7">0.0,0.013792554131725041,0.03318788299534245</node>
			<node id="8">0.0,0.020982145465839718,0.03389478290644794</node>
			<node id="9">0.0,0.028202322675837728,0.03365194120466854</node>
			<node id="10">0.0,0.035328168558559275,0.03246355932513727</node>
			<node id="11">0.0,0.04223639794912157,0.030350197613723668</node>
			<node id="12">0.0,0.04880749069321866,0.027348419609877873</node>
			<node id="13">0.0,0.05492775948049482,0.023510159456189627</node>
			<node id="14">0.0,0.0604913167631439,0.018901823379189508</node>
			<node id="15">0.0,0.0654019067298257,0.013603140786787708</node>
			<node id="16">0.0,0.003336939378722141,0.03037796782001592</node>
			<node id="17">0.0,0.010248179171326026,0.03248146385400959</node>
			<node id="18">0.0,0.01737571455431521,0.033659670287592314</node>
			<node id="19">0.0,0.024596231132548062,0.033892202821577594</node>
			<node id="20">0.0,0.03178480583141202,0.033175038381054095</node>
<!-- ... 18810 like lines cut -->
		</Nodes>
		<Elements type="tri6" name="skin_part">
			<elem id="1040">27,2,2555,41,2724,2725</elem>
			<elem id="1041">2,27,2558,41,2726,2727</elem>
			<elem id="1042">113,2,2558,118,2727,2728</elem>
			<elem id="1043">2,117,2555,123,2729,2724</elem>
			<elem id="1044">40,3,2683,55,2730,2731</elem>
			<elem id="1045">3,40,2684,55,2732,2733</elem>
			<elem id="1046">3,261,2683,329,2734,2730</elem>
			<elem id="1047">328,3,2684,397,2733,2735</elem>
			<elem id="1048">27,28,2028,42,2736,2737</elem>
			<elem id="1049">28,27,2029,42,2738,2739</elem>
			<elem id="1050">27,2028,2558,2737,2740,2726</elem>
			<elem id="1051">2029,27,2555,2738,2725,2741</elem>
			<elem id="1052">28,29,2556,43,2742,2743</elem>
			<elem id="1053">29,28,2559,43,2744,2745</elem>
			<elem id="1054">2028,28,2556,2736,2743,2746</elem>
			<elem id="1055">28,2029,2559,2739,2747,2744</elem>
			<elem id="1056">30,29,1989,44,2748,2749</elem>
			<elem id="1057">29,30,1990,44,2750,2751</elem>
			<elem id="1058">1989,29,2559,2748,2745,2752</elem>
			<elem id="1059">29,1990,2556,2751,2753,2742</elem>
<!-- ... 1717 like lines cut -->
		</Elements>
		<Elements type="tet10" name="glandular_part">
			<elem id="3680">418,6994,6997,7083,7167,7168,7169,7170,7172,7171</elem>
			<elem id="3681">6976,7001,768,7042,7173,7174,7175,7176,7178,7177</elem>
			<elem id="3682">754,7040,6965,7113,7179,7180,7181,7182,7184,7183</elem>
			<elem id="3683">6953,7043,6964,7046,7185,7186,7187,7188,7190,7189</elem>
			<elem id="3684">7004,7031,903,7098,7191,7192,7193,7194,7196,7195</elem>
			<elem id="3685">407,451,968,6972,549,7197,7198,7199,7201,7200</elem>
			<elem id="3686">6998,7000,6981,7016,7202,7203,7204,7205,7207,7206</elem>
			<elem id="3687">6953,6982,6978,7028,7208,7209,7210,7211,7213,7212</elem>
			<elem id="3688">6987,803,7117,7123,7214,7215,7216,7217,7219,7218</elem>
			<elem id="3689">6974,7011,866,7021,7220,7221,7222,7223,7225,7224</elem>
			<elem id="3690">949,6980,7015,7152,7226,7227,7228,7229,7231,7230</elem>
			<elem id="3691">6947,7037,7046,7067,7232,7233,7234,7235,7237,7236</elem>
			<elem id="3692">6953,6982,7001,7043,7208,7238,7239,7185,7241,7240</elem>
			<elem id="3693">6992,7067,6947,7090,7242,7235,7243,7244,7246,7245</elem>
			<elem id="3694">7012,7117,803,7123,7247,7215,7248,7249,7218,7219</elem>
			<elem id="3695">418,7034,6994,7083,7250,7251,7167,7170,7252,7172</elem>
			<elem id="3696">6947,6992,7037,7067,7243,7253,7232,7235,7242,7237</elem>
			<elem id="3697">768,7001,6976,7052,7174,7173,7175,7254,7256,7255</elem>
			<elem id="3698">826,903,7004,7031,1817,7193,7257,7258,7192,7191</elem>
			<elem id="3699">6953,7003,6982,7043,7259,7260,7208,7185,7261,7241</elem>
<!-- ... 2530 like lines cut -->
		</Elements>
		<Elements type="tet10" name="adipose_part">
			<elem id="6230">9756,9819,873,9849,10227,10228,10229,10230,10232,10231</elem>
			<elem id="6231">9588,873,9819,9849,10233,10228,10234,10235,10231,10232</elem>
			<elem id="6232">992,910,9597,9704,1796,10236,10237,10238,10240,10239</elem>
			<elem id="6233">9620,9728,9522,10020,10241,10242,10243,10244,10246,10245</elem>
			<elem id="6234">9606,9832,9683,10011,10247,10248,10249,10250,10252,10251</elem>
			<elem id="6235">9564,9683,9606,9832,10253,10249,10254,10255,10248,10247</elem>
			<elem id="6236">2203,9640,9680,9865,10256,10257,10258,10259,10261,10260</elem>
			<elem id="6237">2203,9680,9761,9865,10258,10262,10263,10259,10260,10264</elem>
			<elem id="6238">956,9652,9702,10154,10265,10266,10267,10268,10270,10269</elem>
			<elem id="6239">9625,9742,2116,9944,10271,10272,10273,10274,10276,10275</elem>
			<elem id="6240">5346,5380,9797,10124,6527,10277,10278,10279,10281,10280</elem>
			<elem id="6241">9550,9580,9687,9966,10282,10283,10284,10285,10287,10286</elem>
			<elem id="6242">2094,9594,2091,10013,10288,10289,3627,10290,10292,10291</elem>
			<elem id="6243">824,9692,9603,9819,10293,10294,10295,10296,10298,10297</elem>
			<elem id="6244">9641,9720,9615,9876,10299,10300,10301,10302,10304,10303</elem>
			<elem id="6245">9777,9821,2049,10203,10305,10306,10307,10308,10310,10309</elem>
			<elem id="6246">9594,9765,2091,10013,10311,10312,10289,10292,10313,10291</elem>
			<elem id="6247">875,9559,9762,9849,10314,10315,10316,10317,10319,10318</elem>
			<elem id="6248">5329,9616,5344,9668,10320,10321,6441,10322,10324,10323</elem>
			<elem id="6249">9538,9558,9671,9888,10325,10326,10327,10328,10330,10329</elem>
<!-- ... 9612 like lines cut -->
		</Elements>
		<Surface name="chest_part">
			<tri6 id="1">124,5,5238,192,5626,5627</tri6>
			<tri6 id="2">5,191,5582,260,5628,5629</tri6>
			<tri6 id="3">5238,5,5582,5626,5629,5630</tri6>
			<tri6 id="4">125,124,5568,193,5631,5632</tri6>
			<tri6 id="5">124,5238,5568,5627,5633,5631</tri6>
			<tri6 id="6">126,125,5215,194,5634,5635</tri6>
			<tri6 id="7">5215,125,5568,5634,5632,5636</tri6>
			<tri6 id="8">127,126,5624,195,5637,5638</tri6>
			<tri6 id="9">126,5215,5624,5635,5639,5637</tri6>
			<tri6 id="10">128,127,5618,196,5640,5641</tri6>
			<tri6 id="11">127,5512,5618,5642,5643,5640</tri6>
			<tri6 id="12">5512,127,5624,5642,5638,5644</tri6>
			<tri6 id="13">129,128,5230,197,5645,5646</tri6>
			<tri6 id="14">5230,128,5618,5645,5641,5647</tri6>
			<tri6 id="15">130,129,5571,198,5648,5649</tri6>
			<tri6 id="16">129,5230,5571,5646,5650,5648</tri6>
			<tri6 id="17">131,130,5223,199,5651,5652</tri6>
			<tri6 id="18">5223,130,5571,5651,5649,5653</tri6>
			<tri6 id="19">132,131,5575,200,5654,5655</tri6>
			<tri6 id="20">131,5223,5575,5652,5656,5654</tri6>
<!-- ... 883 like lines cut -->
		</Surface>
		<PartList name="Mass_damping">skin_part,glandular_part,adipose_part</PartList>
		<PartList name="gravitational_acceleration">skin_part,glandular_part,adipose_part</PartList>
	</Mesh>
	<MeshDomains>
		<ShellDomain name="skin_part" mat="skin">
			<shell_thickness>0.0001</shell_thickness>
		</ShellDomain>
		<SolidDomain name="glandular_part" mat="glandular" />
		<SolidDomain name="adipose_part" mat="adipose" />
	</MeshDomains>
	<MeshData>
		<NodeData name="density_map" node_set="Object01">
			<node lid="1">911.000000</node>
			<node lid="2">911.000000</node>
			<node lid="3">911.000000</node>
			<node lid="4">1041.000000</node>
			<node lid="5">911.000000</node>
			<node lid="6">911.000000</node>
			<node lid="7">911.000000</node>
			<node lid="8">911.000000</node>
			<node lid="9">911.000000</node>
			<node lid="10">911.000000</node>
			<node lid="11">911.000000</node>
			<node lid="12">911.000000</node>
			<node lid="13">911.000000</node>
			<node lid="14">911.000000</node>
			<node lid="15">911.000000</node>
			<node lid="16">911.000000</node>
			<node lid="17">911.000000</node>
			<node lid="18">911.000000</node>
			<node lid="19">911.000000</node>
			<node lid="20">911.000000</node>
<!-- ... 18810 like lines cut -->
		</NodeData>
	</MeshData>
	<Loads>
		<body_load type="body force" elem_set="@part_list:gravitational_acceleration">
			<force lc="1">0,0,9.81</force>
		</body_load>
	</Loads>
	<Step>
		<step id="1" name="Step1">
			<Control>
				<analysis>STATIC</analysis>
				<time_steps>25.0</time_steps>
				<step_size>0.04</step_size>
				<plot_zero_state>0</plot_zero_state>
				<plot_range>0,-1</plot_range>
				<plot_level>PLOT_NEVER</plot_level>
				<output_level>OUTPUT_NEVER</output_level>
				<plot_stride>1</plot_stride>
				<output_stride>1</output_stride>
				<adaptor_re_solve>1</adaptor_re_solve>
				<time_stepper type="default">
					<max_retries>60.0</max_retries>
					<opt_iter>18.0</opt_iter>
					<dtmin>0.0</dtmin>
					<dtmax>0.04</dtmax>
					<aggressiveness>0.0</aggressiveness>
					<cutback>0.3</cutback>
					<dtforce>0.0</dtforce>
				</time_stepper>
				<solver type="solid">
					<symmetric_stiffness>symmetric</symmetric_stiffness>
					<equation_scheme>staggered</equation_scheme>
					<equation_order>default</equation_order>
					<optimize_bw>0.0</optimize_bw>
					<lstol>0.75</lstol>
					<lsmin>0.01</lsmin>
					<lsiter>8.0</lsiter>
					<ls_check_jacobians>1.0</ls_check_jacobians>
					<max_refs>35.0</max_refs>
					<check_zero_diagonal>0.0</check_zero_diagonal>
					<zero_diagonal_tol>0.0</zero_diagonal_tol>
					<force_partition>0.0</force_partition>
					<reform_each_time_step>1.0</reform_each_time_step>
					<reform_augment>0.0</reform_augment>
					<diverge_reform>1.0</diverge_reform>
					<min_residual>1e-20</min_residual>
					<max_residual>0.0</max_residual>
					<dtol>0.001</dtol>
					<etol>0.004</etol>
					<rtol>0.0</rtol>
					<rhoi>-2.0</rhoi>
					<alpha>1.0</alpha>
					<beta>0.25</beta>
					<gamma>0.25</gamma>
					<logSolve>0.0</logSolve>
					<arc_length>0.0</arc_length>
					<arc_length_scale>0.0</arc_length_scale>
					<qn_method type="BFGS">
						<max_ups>15.0</max_ups>
						<max_buffer_size>0.0</max_buffer_size>
						<cycle_buffer>1.0</cycle_buffer>
						<cmax>100000.0</cmax>
					</qn_method>
				</solver>
			</Control>
			<Boundary>
				<bc name="chest" type="zero displacement" node_set="@surface:chest_part">
					<x_dof>1</x_dof>
					<y_dof>1</y_dof>
					<z_dof>1</z_dof>
				</bc>
			</Boundary>
		</step>
		<step id="2" name="Step2">
			<Control>
				<analysis>DYNAMIC</analysis>
				<time_steps>300.0</time_steps>
				<step_size>0.0003</step_size>
				<plot_zero_state>0</plot_zero_state>
				<plot_range>0,-1</plot_range>
				<plot_level>PLOT_MUST_POINTS</plot_level>
				<output_level>OUTPUT_MUST_POINTS</output_level>
				<plot_stride>1</plot_stride>
				<output_stride>1</output_stride>
				<adaptor_re_solve>1</adaptor_re_solve>
				<time_stepper type="default">
					<max_retries>50.0</max_retries>
					<opt_iter>18.0</opt_iter>
					<dtmin>0.0</dtmin>
					<dtmax lc="3">0.0003</dtmax>
					<aggressiveness>0.0</aggressiveness>
					<cutback>0.3</cutback>
					<dtforce>0.0</dtforce>
				</time_stepper>
				<solver type="solid">
					<symmetric_stiffness>symmetric</symmetric_stiffness>
					<equation_scheme>staggered</equation_scheme>
					<equation_order>default</equation_order>
					<optimize_bw>0.0</optimize_bw>
					<lstol>0.75</lstol>
					<lsmin>0.01</lsmin>
					<lsiter>8.0</lsiter>
					<ls_check_jacobians>1.0</ls_check_jacobians>
					<max_refs>25.0</max_refs>
					<check_zero_diagonal>0.0</check_zero_diagonal>
					<zero_diagonal_tol>0.0</zero_diagonal_tol>
					<force_partition>0.0</force_partition>
					<reform_each_time_step>1.0</reform_each_time_step>
					<reform_augment>0.0</reform_augment>
					<diverge_reform>1.0</diverge_reform>
					<min_residual>1e-20</min_residual>
					<max_residual>0.0</max_residual>
					<dtol>0.001</dtol>
					<etol>0.004</etol>
					<rtol>0.0</rtol>
					<rhoi>-2.0</rhoi>
					<alpha>1.0</alpha>
					<beta>0.5</beta>
					<gamma>0.9</gamma>
					<logSolve>0.0</logSolve>
					<arc_length>0.0</arc_length>
					<arc_length_scale>0.0</arc_length_scale>
					<qn_method type="BFGS">
						<max_ups>15.0</max_ups>
						<max_buffer_size>0.0</max_buffer_size>
						<cycle_buffer>1.0</cycle_buffer>
						<cmax>100000.0</cmax>
					</qn_method>
				</solver>
			</Control>
			<Boundary>
				<bc name="parabolic_trajectory" type="prescribed displacement" node_set="@surface:chest_part">
					<dof>z</dof>
					<value lc="2">1</value>
					<relative>0</relative>
				</bc>
				<bc name="only_z_displacement" type="zero displacement" node_set="@surface:chest_part">
					<x_dof>1</x_dof>
					<y_dof>1</y_dof>
					<z_dof>0</z_dof>
				</bc>
			</Boundary>
			<Loads>
				<body_load type="mass damping" elem_set="@part_list:Mass_damping">
					<C>20</C>
				</body_load>
			</Loads>
		</step>
	</Step>
	<LoadData>
		<load_controller id="1" name="LC1" type="loadcurve">
			<interpolate>LINEAR</interpolate>
			<extend>CONSTANT</extend>
			<points>
				<pt>0.0,0.0</pt>
				<pt>0.0033444816053511705,0.0033444816053511705</pt>
				<pt>0.006688963210702341,0.006688963210702341</pt>
				<pt>0.010033444816053512,0.010033444816053512</pt>
				<pt>0.013377926421404682,0.013377926421404682</pt>
				<pt>0.016722408026755852,0.016722408026755852</pt>
				<pt>0.020066889632107024,0.020066889632107024</pt>
				<pt>0.023411371237458192,0.023411371237458192</pt>
				<pt>0.026755852842809364,0.026755852842809364</pt>
				<pt>0.030100334448160536,0.030100334448160536</pt>
				<pt>0.033444816053511704,0.033444816053511704</pt>
				<pt>0.03678929765886287,0.03678929765886287</pt>
				<pt>0.04013377926421405,0.04013377926421405</pt>
				<pt>0.043478260869565216,0.043478260869565216</pt>
				<pt>0.046822742474916385,0.046822742474916385</pt>
				<pt>0.05016722408026756,0.05016722408026756</pt>
				<pt>0.05351170568561873,0.05351170568561873</pt>
				<pt>0.056856187290969896,0.056856187290969896</pt>
				<pt>0.06020066889632107,0.06020066889632107</pt>
				<pt>0.06354515050167224,0.06354515050167224</pt>
<!-- ... 280 like lines cut -->
			</points>
		</load_controller>
		<load_controller id="2" name="LC2" type="loadcurve">
			<interpolate>LINEAR</interpolate>
			<extend>CONSTANT</extend>
			<points>
				<pt>1.0,0.0</pt>
				<pt>1.0018060945639429,0.0007839999999999784</pt>
				<pt>1.0036121891278857,0.0015359999999999586</pt>
				<pt>1.0054182836918288,0.002256000000000027</pt>
				<pt>1.0072243782557717,0.002944000000000007</pt>
				<pt>1.0090304728197146,0.003599999999999988</pt>
				<pt>1.0108365673836575,0.004223999999999972</pt>
				<pt>1.0126426619476006,0.004816000000000028</pt>
				<pt>1.0144487565115434,0.005376000000000012</pt>
				<pt>1.0162548510754863,0.005903999999999996</pt>
				<pt>1.0180609456394292,0.006399999999999982</pt>
				<pt>1.019867040203372,0.006863999999999971</pt>
				<pt>1.0216731347673151,0.007296000000000013</pt>
				<pt>1.023479229331258,0.007696</pt>
				<pt>1.0252853238952009,0.008063999999999991</pt>
				<pt>1.0270914184591438,0.008399999999999982</pt>
				<pt>1.0288975130230869,0.008704000000000014</pt>
				<pt>1.0307036075870297,0.008976000000000003</pt>
				<pt>1.0325097021509726,0.009215999999999995</pt>
				<pt>1.0343157967149155,0.009423999999999991</pt>
<!-- ... 31 like lines cut -->
			</points>
		</load_controller>
		<load_controller id="3" name="LC3" type="loadcurve">
			<interpolate>LINEAR</interpolate>
			<extend>CONSTANT</extend>
			<points>
				<pt>1.0,0.005</pt>
				<pt>1.025,0.005</pt>
				<pt>1.0499999999999998,0.005</pt>
				<pt>1.0749999999999997,0.005</pt>
				<pt>1.0999999999999996,0.005</pt>
				<pt>1.1249999999999996,0.005</pt>
				<pt>1.1499999999999995,0.005</pt>
				<pt>1.1749999999999994,0.005</pt>
				<pt>1.1999999999999993,0.005</pt>
				<pt>1.2249999999999992,0.005</pt>
				<pt>1.2499999999999991,0.005</pt>
				<pt>1.274999999999999,0.005</pt>
				<pt>1.299999999999999,0.005</pt>
				<pt>1.3249999999999988,0.005</pt>
				<pt>1.3499999999999988,0.005</pt>
				<pt>1.3749999999999987,0.005</pt>
				<pt>1.3999999999999986,0.005</pt>
				<pt>1.4249999999999985,0.005</pt>
				<pt>1.4499999999999984,0.005</pt>
				<pt>1.4749999999999983,0.005</pt>
<!-- ... 29 like lines cut -->
			</points>
		</load_controller>
	</LoadData>
	<Output>
		<plotfile type="vtk" file="C:\Users\20223231\ews_fem_clean\output\overnight_hetero_zwaar.vtk">
			<var type="displacement" />
			<var type="stress" />
			<var type="relative volume" />
			<var type="relative volume" />
			<var type="Lagrange strain" />
			<var type="J" />
			<var type="c1" />
			<var type="c2" />
			<var type="density" />
		</plotfile>
	</Output>
</febio_spec>