<?xml version='1.0' encoding='ISO-8859-1'?>
<febio_spec version="4.0">
	<Module type="solid" />
	<Globals>
		<Constants>
			<T>0</T>
			<P>0</P>
			<R>8.31446</R>
			<Fc>96485.3</Fc>
		</Constants>
	</Globals>
	<Material>
		<material id="1" name="skin" type="Mooney-Rivlin">
			<k>480000.0</k>
			<pressure_model>default</pressure_model>
			<density type="math">1100</density>
			<c1 type="math">1200</c1>
			<c2 type="math">1200</c2>
		</material>
		<material id="2" name="adipose" type="Mooney-Rivlin">
			<k>425000.0</k>
			<pressure_model>default</pressure_model>
			<density type="math">911</density>
			<c1 type="math">109</c1>
			<c2 type="math">106</c2>
		</material>
		<material id="3" name="glandular" type="Mooney-Rivlin">
			<k>425000.0</k>
			<pressure_model>default</pressure_model>
			<density type="math">911+(35)*exp(-((X-0.02)^2+(Y-0.045)^2+(Z-0)^2)/(0.004^2))+(35)*exp(-((X-0.025)^2+(Y-0.047)^2+(Z-0.002)^2)/(0.004^2))+(35)*exp(-((X-0.018)^2+(Y-0.043)^2+(Z+0.002)^2)/(0.004^2))</density>
			<c1 type="math">230+(70)*exp(-((X-0.02)^2+(Y-0.045)^2+(Z-0)^2)/(0.004^2))+(70)*exp(-((X-0.025)^2+(Y-0.047)^2+(Z-0.002)^2)/(0.004^2))+(70)*exp(-((X-0.018)^2+(Y-0.043)^2+(Z+0.002)^2)/(0.004^2))</c1>
			<c2 type="math">195+(55)*exp(-((X-0.02)^2+(Y-0.045)^2+(Z-0)^2)/(0.004^2))+(55)*exp(-((X-0.025)^2+(Y-0.047)^2+(Z-0.002)^2)/(0.004^2))+(55)*exp(-((X-0.018)^2+(Y-0.043)^2+(Z+0.002)^2)/(0.004^2))</c2>
		</material>
	</Material>
	<Mesh>
		<Nodes name="Object01">
			<node id="1">0.0,-5.186823193170653e-16,0.03334605738044147</node>
			<node id="2">0.0,0.0669462234993082,0.020450016116878196</node>
			<node id="3">0.0,0.0,0.07</node>
			<node id="4">0.0,0.07938000000000002,0.0</node>
			<node id="5">0.0,-0.002,0.07</node>
			<node id="6">0.0,0.0075502097472394634,0.036247303693377475</node>
			<node id="7">0.0,0.015430106379637374,0.03807216710151706</node>
			<node id="8">0.0,0.02348705002692916,0.03878529854803113</node>
			<node id="9">0.0,0.03156497127724084,0.038372884109139305</node>
			<node id="10">0.0,0.039507394365829354,0.03684291258080988</node>
			<node id="11">0.0,0.04716046823520255,0.03422502072942271</node>
			<node id="12">0.0,0.05437594675257003,0.03056991920401318</node>
			<node id="13">0.0,0.06101406035544088,0.025948410230634166</node>
			<node id="14">0.0,0.003724569544879954,0.03492819378689725</node>
			<node id="15">0.0,0.011458371699135633,0.03729699129501651</node>
			<node id="16">0.0,0.019446156530596146,0.03856907261393165</node>
			<node id="17">0.0,0.02753319428870123,0.03871979651590288</node>
			<node id="18">0.0,0.03556283261469516,0.03774624335897096</node>
			<node id="19">0.0,0.043379531022512824,0.03566727164274594</node>
			<node id="20">0.0,0.05083187384180694,0.03252315270425807</node>
<!-- ... 15334 like lines cut -->
		</Nodes>
		<Elements type="tri6" name="skin_part">
			<elem id="1107">23,2,2615,33,2701,2702</elem>
			<elem id="1108">2,23,2669,33,2703,2704</elem>
			<elem id="1109">105,2,2669,121,2704,2705</elem>
			<elem id="1110">2,120,2615,137,2706,2701</elem>
			<elem id="1111">3,32,2680,43,2707,2708</elem>
			<elem id="1112">32,3,2681,43,2709,2710</elem>
			<elem id="1113">3,261,2681,322,2711,2709</elem>
			<elem id="1114">321,3,2680,383,2708,2712</elem>
			<elem id="1115">24,23,2352,34,2713,2714</elem>
			<elem id="1116">23,24,2662,34,2715,2716</elem>
			<elem id="1117">2342,23,2662,2717,2716,2718</elem>
			<elem id="1118">23,2342,2669,2717,2719,2703</elem>
			<elem id="1119">2352,23,2615,2713,2702,2720</elem>
			<elem id="1120">25,24,2111,35,2721,2722</elem>
			<elem id="1121">24,25,2112,35,2723,2724</elem>
			<elem id="1122">2111,24,2352,2721,2714,2725</elem>
			<elem id="1123">24,2112,2662,2724,2726,2715</elem>
			<elem id="1124">25,26,2462,36,2727,2728</elem>
			<elem id="1125">26,25,2464,36,2729,2730</elem>
			<elem id="1126">25,2111,2464,2722,2731,2729</elem>
<!-- ... 1427 like lines cut -->
		</Elements>
		<Elements type="tet10" name="glandular_part">
			<elem id="3284">6168,6208,6196,6382,6420,6421,6422,6423,6425,6424</elem>
			<elem id="3285">6198,6236,765,6257,6426,6427,6428,6429,6431,6430</elem>
			<elem id="3286">451,6197,420,6273,6432,6433,704,6434,6436,6435</elem>
			<elem id="3287">762,6302,6198,6350,6437,6438,6439,6440,6442,6441</elem>
			<elem id="3288">6168,6196,6208,6322,6422,6421,6420,6443,6445,6444</elem>
			<elem id="3289">6195,6159,6217,6323,6446,6447,6448,6449,6451,6450</elem>
			<elem id="3290">937,6228,6203,6321,6452,6453,6454,6455,6457,6456</elem>
			<elem id="3291">6161,6197,6223,6303,6458,6459,6460,6461,6463,6462</elem>
			<elem id="3292">6159,6217,6323,6395,6447,6450,6451,6464,6466,6465</elem>
			<elem id="3293">734,6233,6181,6252,6467,6468,6469,6470,6472,6471</elem>
			<elem id="3294">6159,6217,6196,6255,6447,6473,6474,6475,6477,6476</elem>
			<elem id="3295">6165,6180,6286,6299,6478,6479,6480,6481,6483,6482</elem>
			<elem id="3296">6180,6229,6165,6360,6484,6485,6478,6486,6488,6487</elem>
			<elem id="3297">399,6196,6217,6255,6489,6473,6490,6491,6476,6477</elem>
			<elem id="3298">6223,6327,6182,6355,6492,6493,6494,6495,6497,6496</elem>
			<elem id="3299">6184,6226,962,6307,6498,6499,6500,6501,6503,6502</elem>
			<elem id="3300">6180,6293,792,6307,6504,6505,6506,6507,6509,6508</elem>
			<elem id="3301">765,6198,967,6236,6428,6510,1495,6427,6426,6511</elem>
			<elem id="3302">892,6224,6195,6323,6512,6513,6514,6515,6516,6449</elem>
			<elem id="3303">833,824,6205,6242,1660,6517,6518,6519,6521,6520</elem>
<!-- ... 2876 like lines cut -->
		</Elements>
		<Elements type="tet10" name="adipose_part">
			<elem id="6180">4921,9353,9176,9372,9521,9522,9523,9524,9526,9525</elem>
			<elem id="6181">2548,9352,9242,9417,9527,9528,9529,9530,9532,9531</elem>
			<elem id="6182">2548,9147,9242,9352,9533,9534,9529,9527,9535,9528</elem>
			<elem id="6183">9153,9140,9314,9379,9536,9537,9538,9539,9541,9540</elem>
			<elem id="6184">4979,4856,9201,9285,5760,9542,9543,9544,9546,9545</elem>
			<elem id="6185">4921,9176,4922,9372,9523,9547,5888,9524,9525,9548</elem>
			<elem id="6186">9242,9352,9147,9417,9528,9535,9534,9531,9532,9549</elem>
			<elem id="6187">9132,9192,9250,9270,9550,9551,9552,9553,9555,9554</elem>
			<elem id="6188">9206,9329,2452,9443,9556,9557,9558,9559,9561,9560</elem>
			<elem id="6189">4893,9229,9180,9341,9562,9563,9564,9565,9567,9566</elem>
			<elem id="6190">2194,9188,9164,9282,9568,9569,9570,9571,9573,9572</elem>
			<elem id="6191">9164,9188,765,9274,9569,9574,9575,9576,9578,9577</elem>
			<elem id="6192">5010,715,9190,9367,9579,9580,9581,9582,9584,9583</elem>
			<elem id="6193">9189,9346,9218,9369,9585,9586,9587,9588,9590,9589</elem>
			<elem id="6194">9163,9250,9192,9270,9591,9551,9592,9593,9554,9555</elem>
			<elem id="6195">9164,9188,2194,9267,9569,9568,9570,9594,9596,9595</elem>
			<elem id="6196">9179,9248,2150,9481,9597,9598,9599,9600,9602,9601</elem>
			<elem id="6197">2192,9164,2194,9267,9603,9570,3538,9604,9594,9595</elem>
			<elem id="6198">2275,2548,9147,9242,3755,9533,9605,9606,9529,9534</elem>
			<elem id="6199">4921,9196,9353,9372,9607,9608,9521,9524,9609,9526</elem>
<!-- ... 6933 like lines cut -->
		</Elements>
		<Surface name="chest_part">
			<tri6 id="1">138,5,4765,199,5093,5094</tri6>
			<tri6 id="2">5,198,4788,260,5095,5096</tri6>
			<tri6 id="3">4765,5,4788,5093,5096,5097</tri6>
			<tri6 id="4">139,138,5057,200,5098,5099</tri6>
			<tri6 id="5">138,4765,5057,5094,5100,5098</tri6>
			<tri6 id="6">140,139,4784,201,5101,5102</tri6>
			<tri6 id="7">4784,139,5057,5101,5099,5103</tri6>
			<tri6 id="8">141,140,5082,202,5104,5105</tri6>
			<tri6 id="9">140,4784,5082,5102,5106,5104</tri6>
			<tri6 id="10">142,141,4771,203,5107,5108</tri6>
			<tri6 id="11">4771,141,5082,5107,5105,5109</tri6>
			<tri6 id="12">143,142,5079,204,5110,5111</tri6>
			<tri6 id="13">142,4771,5079,5108,5112,5110</tri6>
			<tri6 id="14">144,143,4785,205,5113,5114</tri6>
			<tri6 id="15">4785,143,5079,5113,5111,5115</tri6>
			<tri6 id="16">145,144,5073,206,5116,5117</tri6>
			<tri6 id="17">144,4785,5073,5114,5118,5116</tri6>
			<tri6 id="18">146,145,4761,207,5119,5120</tri6>
			<tri6 id="19">4761,145,5073,5119,5117,5121</tri6>
			<tri6 id="20">147,146,5041,208,5122,5123</tri6>
<!-- ... 710 like lines cut -->
		</Surface>
		<PartList name="Mass_damping">skin_part,glandular_part,adipose_part</PartList>
		<PartList name="gravitational_acceleration">skin_part,glandular_part,adipose_part</PartList>
	</Mesh>
	<MeshDomains>
		<ShellDomain name="skin_part" mat="skin">
			<shell_thickness>0.0001</shell_thickness>
		</ShellDomain>
		<SolidDomain name="glandular_part" mat="glandular" />
		<SolidDomain name="adipose_part" mat="adipose" />
	</MeshDomains>
	<MeshData>
		<NodeData name="density_map" node_set="Object01">
			<node lid="1">911.000000</node>
			<node lid="2">911.000000</node>
			<node lid="3">911.000000</node>
			<node lid="4">911.000000</node>
			<node lid="5">911.000000</node>
			<node lid="6">911.000000</node>
			<node lid="7">911.000000</node>
			<node lid="8">911.000000</node>
			<node lid="9">911.000000</node>
			<node lid="10">911.000000</node>
			<node lid="11">911.000000</node>
			<node lid="12">911.000000</node>
			<node lid="13">911.000000</node>
			<node lid="14">911.000000</node>
			<node lid="15">911.000000</node>
			<node lid="16">911.000000</node>
			<node lid="17">911.000000</node>
			<node lid="18">911.000000</node>
			<node lid="19">911.000000</node>
			<node lid="20">911.000000</node>
<!-- ... 15334 like lines cut -->
		</NodeData>
	</MeshData>
	<Loads>
		<body_load type="body force" elem_set="@part_list:gravitational_acceleration">
			<force lc="1">0,0,9.81</force>
		</body_load>
	</Loads>
	<Step>
		<step id="1" name="Step1">
			<Control>
				<analysis>STATIC</analysis>
				<time_steps>10.0</time_steps>
				<step_size>0.1</step_size>
				<plot_zero_state>0</plot_zero_state>
				<plot_range>0,-1</plot_range>
				<plot_level>PLOT_NEVER</plot_level>
				<output_level>OUTPUT_NEVER</output_level>
				<plot_stride>1</plot_stride>
				<output_stride>1</output_stride>
				<adaptor_re_solve>1</adaptor_re_solve>
				<time_stepper type="default">
					<max_retries>40.0</max_retries>
					<opt_iter>11.0</opt_iter>
					<dtmin>0.0</dtmin>
					<dtmax>0.1</dtmax>
					<aggressiveness>0.0</aggressiveness>
					<cutback>0.5</cutback>
					<dtforce>0.0</dtforce>
				</time_stepper>
				<solver type="solid">
					<symmetric_stiffness>symmetric</symmetric_stiffness>
					<equation_scheme>staggered</equation_scheme>
					<equation_order>default</equation_order>
					<optimize_bw>0.0</optimize_bw>
					<lstol>0.9</lstol>
					<lsmin>0.01</lsmin>
					<lsiter>5.0</lsiter>
					<ls_check_jacobians>0.0</ls_check_jacobians>
					<max_refs>15.0</max_refs>
					<check_zero_diagonal>0.0</check_zero_diagonal>
					<zero_diagonal_tol>0.0</zero_diagonal_tol>
					<force_partition>0.0</force_partition>
					<reform_each_time_step>1.0</reform_each_time_step>
					<reform_augment>0.0</reform_augment>
					<diverge_reform>1.0</diverge_reform>
					<min_residual>1e-20</min_residual>
					<max_residual>0.0</max_residual>
					<dtol>0.001</dtol>
					<etol>0.01</etol>
					<rtol>0.0</rtol>
					<rhoi>-2.0</rhoi>
					<alpha>1.0</alpha>
					<beta>0.25</beta>
					<gamma>0.25</gamma>
					<logSolve>0.0</logSolve>
					<arc_length>0.0</arc_length>
					<arc_length_scale>0.0</arc_length_scale>
					<qn_method type="BFGS">
						<max_ups>10.0</max_ups>
						<max_buffer_size>0.0</max_buffer_size>
						<cycle_buffer>1.0</cycle_buffer>
						<cmax>100000.0</cmax>
					</qn_method>
				</solver>
			</Control>
			<Boundary>
				<bc name="chest" type="zero displacement" node_set="@surface:chest_part">
					<x_dof>1</x_dof>
					<y_dof>1</y_dof>
					<z_dof>1</z_dof>
				</bc>
			</Boundary>
		</step>
		<step id="2" name="Step2">
			<Control>
				<analysis>DYNAMIC</analysis>
				<time_steps>120.0</time_steps>
				<step_size>0.01</step_size>
				<plot_zero_state>0</plot_zero_state>
				<plot_range>0,-1</plot_range>
				<plot_level>PLOT_MUST_POINTS</plot_level>
				<output_level>OUTPUT_MUST_POINTS</output_level>
				<plot_stride>1</plot_stride>
				<output_stride>1</output_stride>
				<adaptor_re_solve>1</adaptor_re_solve>
				<time_stepper type="default">
					<max_retries>20.0</max_retries>
					<opt_iter>11.0</opt_iter>
					<dtmin>0.0</dtmin>
					<dtmax lc="3">0.01</dtmax>
					<aggressiveness>0.0</aggressiveness>
					<cutback>0.5</cutback>
					<dtforce>0.0</dtforce>
				</time_stepper>
				<solver type="solid">
					<symmetric_stiffness>symmetric</symmetric_stiffness>
					<equation_scheme>staggered</equation_scheme>
					<equation_order>default</equation_order>
					<optimize_bw>0.0</optimize_bw>
					<lstol>0.9</lstol>
					<lsmin>0.01</lsmin>
					<lsiter>5.0</lsiter>
					<ls_check_jacobians>0.0</ls_check_jacobians>
					<max_refs>15.0</max_refs>
					<check_zero_diagonal>0.0</check_zero_diagonal>
					<zero_diagonal_tol>0.0</zero_diagonal_tol>
					<force_partition>0.0</force_partition>
					<reform_each_time_step>1.0</reform_each_time_step>
					<reform_augment>0.0</reform_augment>
					<diverge_reform>1.0</diverge_reform>
					<min_residual>1e-20</min_residual>
					<max_residual>0.0</max_residual>
					<dtol>0.001</dtol>
					<etol>0.01</etol>
					<rtol>0.0</rtol>
					<rhoi>-2.0</rhoi>
					<alpha>1.0</alpha>
					<beta>1.0</beta>
					<gamma>1.5</gamma>
					<logSolve>0.0</logSolve>
					<arc_length>0.0</arc_length>
					<arc_length_scale>0.0</arc_length_scale>
					<qn_method type="BFGS">
						<max_ups>10.0</max_ups>
						<max_buffer_size>0.0</max_buffer_size>
						<cycle_buffer>1.0</cycle_buffer>
						<cmax>100000.0</cmax>
					</qn_method>
				</solver>
			</Control>
			<Boundary>
				<bc name="parabolic_trajectory" type="prescribed displacement" node_set="@surface:chest_part">
					<dof>z</dof>
					<value lc="2">1</value>
					<relative>0</relative>
				</bc>
				<bc name="only_z_displacement" type="zero displacement" node_set="@surface:chest_part">
					<x_dof>1</x_dof>
					<y_dof>1</y_dof>
					<z_dof>0</z_dof>
				</bc>
			</Boundary>
			<Loads>
				<body_load type="mass damping" elem_set="@part_list:Mass_damping">
					<C>20</C>
				</body_load>
			</Loads>
		</step>
	</Step>
	<LoadData>
		<load_controller id="1" name="LC1" type="loadcurve">
			<interpolate>LINEAR</interpolate>
			<extend>CONSTANT</extend>
			<points>
				<pt>0.0,0.0</pt>
				<pt>0.1111111111111111,0.1111111111111111</pt>
				<pt>0.2222222222222222,0.2222222222222222</pt>
				<pt>0.3333333333333333,0.3333333333333333</pt>
				<pt>0.4444444444444444,0.4444444444444444</pt>
				<pt>0.5555555555555556,0.5555555555555556</pt>
				<pt>0.6666666666666666,0.6666666666666666</pt>
				<pt>0.7777777777777777,0.7777777777777777</pt>
				<pt>0.8888888888888888,0.8888888888888888</pt>
				<pt>1.0,1.0</pt>
			</points>
		</load_controller>
		<load_controller id="2" name="LC2" type="loadcurve">
			<interpolate>LINEAR</interpolate>
			<extend>CONSTANT</extend>
			<points>
				<pt>1.0,0.0</pt>
				<pt>1.0018060945639429,0.0007839999999999784</pt>
				<pt>1.0036121891278857,0.0015359999999999586</pt>
				<pt>1.0054182836918288,0.002256000000000027</pt>
				<pt>1.0072243782557717,0.002944000000000007</pt>
				<pt>1.0090304728197146,0.003599999999999988</pt>
				<pt>1.0108365673836575,0.004223999999999972</pt>
				<pt>1.0126426619476006,0.004816000000000028</pt>
				<pt>1.0144487565115434,0.005376000000000012</pt>
				<pt>1.0162548510754863,0.005903999999999996</pt>
				<pt>1.0180609456394292,0.006399999999999982</pt>
				<pt>1.019867040203372,0.006863999999999971</pt>
				<pt>1.0216731347673151,0.007296000000000013</pt>
				<pt>1.023479229331258,0.007696</pt>
				<pt>1.0252853238952009,0.008063999999999991</pt>
				<pt>1.0270914184591438,0.008399999999999982</pt>
				<pt>1.0288975130230869,0.008704000000000014</pt>
				<pt>1.0307036075870297,0.008976000000000003</pt>
				<pt>1.0325097021509726,0.009215999999999995</pt>
				<pt>1.0343157967149155,0.009423999999999991</pt>
<!-- ... 31 like lines cut -->
			</points>
		</load_controller>
		<load_controller id="3" name="LC3" type="loadcurve">
			<interpolate>LINEAR</interpolate>
			<extend>CONSTANT</extend>
			<points>
				<pt>1.0,0.01</pt>
				<pt>1.025,0.01</pt>
				<pt>1.0499999999999998,0.01</pt>
				<pt>1.0749999999999997,0.01</pt>
				<pt>1.0999999999999996,0.01</pt>
				<pt>1.1249999999999996,0.01</pt>
				<pt>1.1499999999999995,0.01</pt>
				<pt>1.1749999999999994,0.01</pt>
				<pt>1.1999999999999993,0.01</pt>
				<pt>1.2249999999999992,0.01</pt>
				<pt>1.2499999999999991,0.01</pt>
				<pt>1.274999999999999,0.01</pt>
				<pt>1.299999999999999,0.01</pt>
				<pt>1.3249999999999988,0.01</pt>
				<pt>1.3499999999999988,0.01</pt>
				<pt>1.3749999999999987,0.01</pt>
				<pt>1.3999999999999986,0.01</pt>
				<pt>1.4249999999999985,0.01</pt>
				<pt>1.4499999999999984,0.01</pt>
				<pt>1.4749999999999983,0.01</pt>
<!-- ... 29 like lines cut -->
			</points>
		</load_controller>
	</LoadData>
	<Output>
		<plotfile type="vtk" file="runs\overnight_suite\output\asym_manual_lobules.vtk">
			<var type="displacement" />
			<var type="stress" />
			<var type="relative volume" />
		</plotfile>
	</Output>
</febio_spec>