<?xml version='1.0' encoding='ISO-8859-1'?>
<febio_spec version="4.0">
	<Module type="solid" />
	<Globals>
		<Constants>
			<T>0</T>
			<P>0</P>
			<R>8.31446</R>
			<Fc>96485.3</Fc>
		</Constants>
	</Globals>
	<Material>
		<material id="1" name="skin" type="Mooney-Rivlin">
			<k>480000.0</k>
			<pressure_model>default</pressure_model>
			<density type="math">1100</density>
			<c1 type="math">1200</c1>
			<c2 type="math">1200</c2>
		</material>
		<material id="2" name="adipose" type="Mooney-Rivlin">
			<k>425000.0</k>
			<pressure_model>default</pressure_model>
			<density type="math">911</density>
			<c1 type="math">109</c1>
			<c2 type="math">106</c2>
		</material>
		<material id="3" name="glandular" type="Mooney-Rivlin">
			<k>425000.0</k>
			<pressure_model>default</pressure_model>
			<density type="math">911+(25)*exp(-((X-0.000264151619)^2+(Y-0.034608669278)^2+(Z+0.006544074635)^2)/(0.0034675^2))+(25)*exp(-((X-0.000737167596)^2+(Y-0.034326098795)^2+(Z+0.013080436554)^2)/(0.003135^2))+(25)*exp(-((X-0.000089568182)^2+(Y-0.036158086051)^2+(Z+0.019466844941)^2)/(0.0028025^2))+(25)*exp(-((X+0.000739482455)^2+(Y-0.041163187117)^2+(Z+0.002276254334)^2)/(0.0034675^2))+(25)*exp(-((X
			<c1 type="math">230+(55)*exp(-((X-0.000264151619)^2+(Y-0.034608669278)^2+(Z+0.006544074635)^2)/(0.0034675^2))+(55)*exp(-((X-0.000737167596)^2+(Y-0.034326098795)^2+(Z+0.013080436554)^2)/(0.003135^2))+(55)*exp(-((X-0.000089568182)^2+(Y-0.036158086051)^2+(Z+0.019466844941)^2)/(0.0028025^2))+(55)*exp(-((X+0.000739482455)^2+(Y-0.041163187117)^2+(Z+0.002276254334)^2)/(0.0034675^2))+(55)*exp(-((X-0.00
			<c2 type="math">195+(42)*exp(-((X-0.000264151619)^2+(Y-0.034608669278)^2+(Z+0.006544074635)^2)/(0.0034675^2))+(42)*exp(-((X-0.000737167596)^2+(Y-0.034326098795)^2+(Z+0.013080436554)^2)/(0.003135^2))+(42)*exp(-((X-0.000089568182)^2+(Y-0.036158086051)^2+(Z+0.019466844941)^2)/(0.0028025^2))+(42)*exp(-((X+0.000739482455)^2+(Y-0.041163187117)^2+(Z+0.002276254334)^2)/(0.0034675^2))+(42)*exp(-((X-0.00
		</material>
	</Material>
	<Mesh>
		<Nodes name="Object01">
			<node id="1">0.0,1.474514954580286e-15,0.0289899989998013</node>
			<node id="2">0.0,0.06957457063968628,0.007705784859658587</node>
			<node id="3">0.0,0.0,0.07</node>
			<node id="4">0.0,0.07350000000000001,0.0</node>
			<node id="5">0.0,-0.002,0.07</node>
			<node id="6">0.0,0.007450925286663591,0.031749415285060284</node>
			<node id="7">0.0,0.015222029841528019,0.03340489100525022</node>
			<node id="8">0.0,0.0231506798703216,0.03392178033932913</node>
			<node id="9">0.0,0.031070944464697294,0.03328926581945481</node>
			<node id="10">0.0,0.038817068206807054,0.0315205847191157</node>
			<node id="11">0.0,0.04622694010120655,0.02865275202327017</node>
			<node id="12">0.0,0.05314548623623277,0.024745785778178365</node>
			<node id="13">0.0,0.059427915173184645,0.01988145103281772</node>
			<node id="14">0.0,0.06494881357015471,0.014154269061827023</node>
			<node id="15">0.0,0.0036754982714077046,0.030504620023896204</node>
			<node id="16">0.0,0.011306502092457786,0.03271786346868309</node>
			<node id="17">0.0,0.019176995611699894,0.03380689865008957</node>
			<node id="18">0.0,0.027122265021103067,0.03374893422328183</node>
			<node id="19">0.0,0.03497603160167019,0.03254518326866537</node>
			<node id="20">0.0,0.04257393160699721,0.03022083790451986</node>
<!-- ... 12754 like lines cut -->
		</Nodes>
		<Elements type="tri6" name="skin_part">
			<elem id="802">2,25,1842,37,2068,2069</elem>
			<elem id="803">25,2,1843,37,2070,2071</elem>
			<elem id="804">99,2,1842,103,2069,2072</elem>
			<elem id="805">2,102,1843,107,2073,2070</elem>
			<elem id="806">36,3,2034,49,2074,2075</elem>
			<elem id="807">3,36,2035,49,2076,2077</elem>
			<elem id="808">3,227,2034,286,2078,2074</elem>
			<elem id="809">285,3,2035,345,2077,2079</elem>
			<elem id="810">25,26,1747,38,2080,2081</elem>
			<elem id="811">26,25,1748,38,2082,2083</elem>
			<elem id="812">25,1747,1842,2081,2084,2068</elem>
			<elem id="813">1748,25,1843,2082,2071,2085</elem>
			<elem id="814">26,27,1935,39,2086,2087</elem>
			<elem id="815">27,26,1936,39,2088,2089</elem>
			<elem id="816">1747,26,1935,2080,2087,2090</elem>
			<elem id="817">26,1748,1936,2083,2091,2088</elem>
			<elem id="818">27,28,1646,40,2092,2093</elem>
			<elem id="819">28,27,1647,40,2094,2095</elem>
			<elem id="820">27,1646,1935,2093,2096,2086</elem>
			<elem id="821">1647,27,1936,2094,2089,2097</elem>
<!-- ... 1299 like lines cut -->
		</Elements>
		<Elements type="tet10" name="glandular_part">
			<elem id="2813">5276,5284,5350,5352,5400,5401,5402,5403,5405,5404</elem>
			<elem id="2814">5276,5322,5284,5352,5406,5407,5400,5403,5408,5405</elem>
			<elem id="2815">5329,5276,5350,5352,5409,5402,5410,5411,5403,5404</elem>
			<elem id="2816">627,5303,5290,5340,5412,5413,5414,5415,5417,5416</elem>
			<elem id="2817">592,5317,5300,5357,5418,5419,5420,5421,5423,5422</elem>
			<elem id="2818">374,373,5302,5358,549,5424,5425,5426,5428,5427</elem>
			<elem id="2819">5320,5351,5281,5366,5429,5430,5431,5432,5434,5433</elem>
			<elem id="2820">5303,5340,627,5357,5417,5415,5412,5435,5437,5436</elem>
			<elem id="2821">374,5302,5278,5358,5425,5438,5439,5426,5427,5440</elem>
			<elem id="2822">629,5326,5317,5398,5441,5442,5443,5444,5446,5445</elem>
			<elem id="2823">592,594,5317,5357,1066,5447,5418,5421,5448,5423</elem>
			<elem id="2824">5307,5311,5270,5329,5449,5450,5451,5452,5454,5453</elem>
			<elem id="2825">5311,5329,5307,5350,5454,5452,5449,5455,5410,5456</elem>
			<elem id="2826">5277,5268,5305,5318,5457,5458,5459,5460,5462,5461</elem>
			<elem id="2827">5329,5344,5276,5352,5463,5464,5409,5411,5465,5403</elem>
			<elem id="2828">5267,5331,5306,5354,5466,5467,5468,5469,5471,5470</elem>
			<elem id="2829">667,5312,5303,5377,5472,5473,5474,5475,5477,5476</elem>
			<elem id="2830">765,5282,5319,5337,5478,5479,5480,5481,5483,5482</elem>
			<elem id="2831">5277,5302,5321,5382,5484,5485,5486,5487,5489,5488</elem>
			<elem id="2832">5271,5282,5280,5330,5490,5491,5492,5493,5495,5494</elem>
<!-- ... 1668 like lines cut -->
		</Elements>
		<Elements type="tet10" name="adipose_part">
			<elem id="4501">1729,7036,7050,7144,7309,7310,7311,7312,7314,7313</elem>
			<elem id="4502">4011,4021,6991,7291,4787,7315,7316,7317,7319,7318</elem>
			<elem id="4503">1729,7036,1856,7050,7309,7320,3348,7311,7310,7321</elem>
			<elem id="4504">1519,6988,4221,7093,7322,7323,7324,7325,7327,7326</elem>
			<elem id="4505">1751,6935,1679,7228,7328,7329,3173,7330,7332,7331</elem>
			<elem id="4506">1995,1651,1649,6997,3061,3060,3062,7333,7335,7334</elem>
			<elem id="4507">4011,4021,4174,6991,4787,4791,4790,7316,7315,7336</elem>
			<elem id="4508">1679,6935,1751,7031,7329,7328,3173,7337,7339,7338</elem>
			<elem id="4509">621,6983,6966,7184,7340,7341,7342,7343,7345,7344</elem>
			<elem id="4510">1878,1677,7012,7047,3196,7346,7347,7348,7350,7349</elem>
			<elem id="4511">4221,6988,4153,7093,7323,7351,4509,7326,7327,7352</elem>
			<elem id="4512">621,6966,7147,7184,7342,7353,7354,7343,7344,7355</elem>
			<elem id="4513">4152,7088,7123,7206,7356,7357,7358,7359,7361,7360</elem>
			<elem id="4514">1737,6962,7075,7164,7362,7363,7364,7365,7367,7366</elem>
			<elem id="4515">4085,6961,7105,7112,7368,7369,7370,7371,7373,7372</elem>
			<elem id="4516">6970,6982,6916,7042,7374,7375,7376,7377,7379,7378</elem>
			<elem id="4517">4127,6986,6954,7140,7380,7381,7382,7383,7385,7384</elem>
			<elem id="4518">1993,6937,1591,7163,7386,7387,2751,7388,7390,7389</elem>
			<elem id="4519">4085,7105,4086,7112,7370,7391,5010,7371,7372,7392</elem>
			<elem id="4520">6930,6916,7040,7042,7393,7394,7395,7396,7378,7397</elem>
<!-- ... 6363 like lines cut -->
		</Elements>
		<Surface name="chest_part">
			<tri6 id="1">108,5,3959,167,4257,4258</tri6>
			<tri6 id="2">5,166,4206,226,4259,4260</tri6>
			<tri6 id="3">3959,5,4206,4257,4260,4261</tri6>
			<tri6 id="4">109,108,4209,168,4262,4263</tri6>
			<tri6 id="5">108,3959,4209,4258,4264,4262</tri6>
			<tri6 id="6">110,109,3951,169,4265,4266</tri6>
			<tri6 id="7">3951,109,4209,4265,4263,4267</tri6>
			<tri6 id="8">111,110,4213,170,4268,4269</tri6>
			<tri6 id="9">110,3951,4213,4266,4270,4268</tri6>
			<tri6 id="10">112,111,3966,171,4271,4272</tri6>
			<tri6 id="11">3966,111,4213,4271,4269,4273</tri6>
			<tri6 id="12">113,112,4222,172,4274,4275</tri6>
			<tri6 id="13">112,3966,4222,4272,4276,4274</tri6>
			<tri6 id="14">114,113,3943,173,4277,4278</tri6>
			<tri6 id="15">3943,113,4222,4277,4275,4279</tri6>
			<tri6 id="16">115,114,4208,174,4280,4281</tri6>
			<tri6 id="17">114,3943,4208,4278,4282,4280</tri6>
			<tri6 id="18">116,115,3960,175,4283,4284</tri6>
			<tri6 id="19">3960,115,4208,4283,4281,4285</tri6>
			<tri6 id="20">117,116,4214,176,4286,4287</tri6>
<!-- ... 672 like lines cut -->
		</Surface>
		<PartList name="Mass_damping">skin_part,glandular_part,adipose_part</PartList>
		<PartList name="gravitational_acceleration">skin_part,glandular_part,adipose_part</PartList>
	</Mesh>
	<MeshDomains>
		<ShellDomain name="skin_part" mat="skin">
			<shell_thickness>0.0001</shell_thickness>
		</ShellDomain>
		<SolidDomain name="glandular_part" mat="glandular" />
		<SolidDomain name="adipose_part" mat="adipose" />
	</MeshDomains>
	<MeshData>
		<NodeData name="density_map" node_set="Object01">
			<node lid="1">911.000000</node>
			<node lid="2">911.000000</node>
			<node lid="3">911.000000</node>
			<node lid="4">911.000000</node>
			<node lid="5">911.000000</node>
			<node lid="6">911.000000</node>
			<node lid="7">911.000000</node>
			<node lid="8">911.000000</node>
			<node lid="9">911.000000</node>
			<node lid="10">911.000000</node>
			<node lid="11">911.000000</node>
			<node lid="12">911.000000</node>
			<node lid="13">911.000000</node>
			<node lid="14">911.000000</node>
			<node lid="15">911.000000</node>
			<node lid="16">911.000000</node>
			<node lid="17">911.000000</node>
			<node lid="18">911.000000</node>
			<node lid="19">911.000000</node>
			<node lid="20">911.000000</node>
<!-- ... 12754 like lines cut -->
		</NodeData>
	</MeshData>
	<Loads>
		<body_load type="body force" elem_set="@part_list:gravitational_acceleration">
			<force lc="1">0,0,9.81</force>
		</body_load>
	</Loads>
	<Step>
		<step id="1" name="Step1">
			<Control>
				<analysis>STATIC</analysis>
				<time_steps>10.0</time_steps>
				<step_size>0.1</step_size>
				<plot_zero_state>0</plot_zero_state>
				<plot_range>0,-1</plot_range>
				<plot_level>PLOT_NEVER</plot_level>
				<output_level>OUTPUT_NEVER</output_level>
				<plot_stride>1</plot_stride>
				<output_stride>1</output_stride>
				<adaptor_re_solve>1</adaptor_re_solve>
				<time_stepper type="default">
					<max_retries>40.0</max_retries>
					<opt_iter>11.0</opt_iter>
					<dtmin>0.0</dtmin>
					<dtmax>0.1</dtmax>
					<aggressiveness>0.0</aggressiveness>
					<cutback>0.5</cutback>
					<dtforce>0.0</dtforce>
				</time_stepper>
				<solver type="solid">
					<symmetric_stiffness>symmetric</symmetric_stiffness>
					<equation_scheme>staggered</equation_scheme>
					<equation_order>default</equation_order>
					<optimize_bw>0.0</optimize_bw>
					<lstol>0.9</lstol>
					<lsmin>0.01</lsmin>
					<lsiter>5.0</lsiter>
					<ls_check_jacobians>0.0</ls_check_jacobians>
					<max_refs>15.0</max_refs>
					<check_zero_diagonal>0.0</check_zero_diagonal>
					<zero_diagonal_tol>0.0</zero_diagonal_tol>
					<force_partition>0.0</force_partition>
					<reform_each_time_step>1.0</reform_each_time_step>
					<reform_augment>0.0</reform_augment>
					<diverge_reform>1.0</diverge_reform>
					<min_residual>1e-20</min_residual>
					<max_residual>0.0</max_residual>
					<dtol>0.001</dtol>
					<etol>0.01</etol>
					<rtol>0.0</rtol>
					<rhoi>-2.0</rhoi>
					<alpha>1.0</alpha>
					<beta>0.25</beta>
					<gamma>0.25</gamma>
					<logSolve>0.0</logSolve>
					<arc_length>0.0</arc_length>
					<arc_length_scale>0.0</arc_length_scale>
					<qn_method type="BFGS">
						<max_ups>10.0</max_ups>
						<max_buffer_size>0.0</max_buffer_size>
						<cycle_buffer>1.0</cycle_buffer>
						<cmax>100000.0</cmax>
					</qn_method>
				</solver>
			</Control>
			<Boundary>
				<bc name="chest" type="zero displacement" node_set="@surface:chest_part">
					<x_dof>1</x_dof>
					<y_dof>1</y_dof>
					<z_dof>1</z_dof>
				</bc>
			</Boundary>
		</step>
		<step id="2" name="Step2">
			<Control>
				<analysis>DYNAMIC</analysis>
				<time_steps>120.0</time_steps>
				<step_size>0.01</step_size>
				<plot_zero_state>0</plot_zero_state>
				<plot_range>0,-1</plot_range>
				<plot_level>PLOT_MUST_POINTS</plot_level>
				<output_level>OUTPUT_MUST_POINTS</output_level>
				<plot_stride>1</plot_stride>
				<output_stride>1</output_stride>
				<adaptor_re_solve>1</adaptor_re_solve>
				<time_stepper type="default">
					<max_retries>20.0</max_retries>
					<opt_iter>11.0</opt_iter>
					<dtmin>0.0</dtmin>
					<dtmax lc="3">0.01</dtmax>
					<aggressiveness>0.0</aggressiveness>
					<cutback>0.5</cutback>
					<dtforce>0.0</dtforce>
				</time_stepper>
				<solver type="solid">
					<symmetric_stiffness>symmetric</symmetric_stiffness>
					<equation_scheme>staggered</equation_scheme>
					<equation_order>default</equation_order>
					<optimize_bw>0.0</optimize_bw>
					<lstol>0.9</lstol>
					<lsmin>0.01</lsmin>
					<lsiter>5.0</lsiter>
					<ls_check_jacobians>0.0</ls_check_jacobians>
					<max_refs>15.0</max_refs>
					<check_zero_diagonal>0.0</check_zero_diagonal>
					<zero_diagonal_tol>0.0</zero_diagonal_tol>
					<force_partition>0.0</force_partition>
					<reform_each_time_step>1.0</reform_each_time_step>
					<reform_augment>0.0</reform_augment>
					<diverge_reform>1.0</diverge_reform>
					<min_residual>1e-20</min_residual>
					<max_residual>0.0</max_residual>
					<dtol>0.001</dtol>
					<etol>0.01</etol>
					<rtol>0.0</rtol>
					<rhoi>-2.0</rhoi>
					<alpha>1.0</alpha>
					<beta>1.0</beta>
					<gamma>1.5</gamma>
					<logSolve>0.0</logSolve>
					<arc_length>0.0</arc_length>
					<arc_length_scale>0.0</arc_length_scale>
					<qn_method type="BFGS">
						<max_ups>10.0</max_ups>
						<max_buffer_size>0.0</max_buffer_size>
						<cycle_buffer>1.0</cycle_buffer>
						<cmax>100000.0</cmax>
					</qn_method>
				</solver>
			</Control>
			<Boundary>
				<bc name="parabolic_trajectory" type="prescribed displacement" node_set="@surface:chest_part">
					<dof>z</dof>
					<value lc="2">1</value>
					<relative>0</relative>
				</bc>
				<bc name="only_z_displacement" type="zero displacement" node_set="@surface:chest_part">
					<x_dof>1</x_dof>
					<y_dof>1</y_dof>
					<z_dof>0</z_dof>
				</bc>
			</Boundary>
			<Loads>
				<body_load type="mass damping" elem_set="@part_list:Mass_damping">
					<C>20</C>
				</body_load>
			</Loads>
		</step>
	</Step>
	<LoadData>
		<load_controller id="1" name="LC1" type="loadcurve">
			<interpolate>LINEAR</interpolate>
			<extend>CONSTANT</extend>
			<points>
				<pt>0.0,0.0</pt>
				<pt>0.1111111111111111,0.1111111111111111</pt>
				<pt>0.2222222222222222,0.2222222222222222</pt>
				<pt>0.3333333333333333,0.3333333333333333</pt>
				<pt>0.4444444444444444,0.4444444444444444</pt>
				<pt>0.5555555555555556,0.5555555555555556</pt>
				<pt>0.6666666666666666,0.6666666666666666</pt>
				<pt>0.7777777777777777,0.7777777777777777</pt>
				<pt>0.8888888888888888,0.8888888888888888</pt>
				<pt>1.0,1.0</pt>
			</points>
		</load_controller>
		<load_controller id="2" name="LC2" type="loadcurve">
			<interpolate>LINEAR</interpolate>
			<extend>CONSTANT</extend>
			<points>
				<pt>1.0,0.0</pt>
				<pt>1.0018060945639429,0.0007839999999999784</pt>
				<pt>1.0036121891278857,0.0015359999999999586</pt>
				<pt>1.0054182836918288,0.002256000000000027</pt>
				<pt>1.0072243782557717,0.002944000000000007</pt>
				<pt>1.0090304728197146,0.003599999999999988</pt>
				<pt>1.0108365673836575,0.004223999999999972</pt>
				<pt>1.0126426619476006,0.004816000000000028</pt>
				<pt>1.0144487565115434,0.005376000000000012</pt>
				<pt>1.0162548510754863,0.005903999999999996</pt>
				<pt>1.0180609456394292,0.006399999999999982</pt>
				<pt>1.019867040203372,0.006863999999999971</pt>
				<pt>1.0216731347673151,0.007296000000000013</pt>
				<pt>1.023479229331258,0.007696</pt>
				<pt>1.0252853238952009,0.008063999999999991</pt>
				<pt>1.0270914184591438,0.008399999999999982</pt>
				<pt>1.0288975130230869,0.008704000000000014</pt>
				<pt>1.0307036075870297,0.008976000000000003</pt>
				<pt>1.0325097021509726,0.009215999999999995</pt>
				<pt>1.0343157967149155,0.009423999999999991</pt>
<!-- ... 31 like lines cut -->
			</points>
		</load_controller>
		<load_controller id="3" name="LC3" type="loadcurve">
			<interpolate>LINEAR</interpolate>
			<extend>CONSTANT</extend>
			<points>
				<pt>1.0,0.01</pt>
				<pt>1.025,0.01</pt>
				<pt>1.0499999999999998,0.01</pt>
				<pt>1.0749999999999997,0.01</pt>
				<pt>1.0999999999999996,0.01</pt>
				<pt>1.1249999999999996,0.01</pt>
				<pt>1.1499999999999995,0.01</pt>
				<pt>1.1749999999999994,0.01</pt>
				<pt>1.1999999999999993,0.01</pt>
				<pt>1.2249999999999992,0.01</pt>
				<pt>1.2499999999999991,0.01</pt>
				<pt>1.274999999999999,0.01</pt>
				<pt>1.299999999999999,0.01</pt>
				<pt>1.3249999999999988,0.01</pt>
				<pt>1.3499999999999988,0.01</pt>
				<pt>1.3749999999999987,0.01</pt>
				<pt>1.3999999999999986,0.01</pt>
				<pt>1.4249999999999985,0.01</pt>
				<pt>1.4499999999999984,0.01</pt>
				<pt>1.4749999999999983,0.01</pt>
<!-- ... 29 like lines cut -->
			</points>
		</load_controller>
	</LoadData>
	<Output>
		<plotfile type="vtk" file="runs\overnight_suite\output\auto_lobules_safe.vtk">
			<var type="displacement" />
			<var type="stress" />
			<var type="relative volume" />
		</plotfile>
	</Output>
</febio_spec>