<?xml version='1.0' encoding='ISO-8859-1'?>
<febio_spec version="4.0">
	<Module type="solid" />
	<Globals>
		<Constants>
			<T>0</T>
			<P>0</P>
			<R>8.31446</R>
			<Fc>96485.3</Fc>
		</Constants>
	</Globals>
	<Material>
		<material id="1" name="skin" type="Mooney-Rivlin">
			<k>480000.0</k>
			<pressure_model>default</pressure_model>
			<density type="math">1100</density>
			<c1 type="math">1200</c1>
			<c2 type="math">1200</c2>
		</material>
		<material id="2" name="adipose" type="Mooney-Rivlin">
			<k>425000.0</k>
			<pressure_model>default</pressure_model>
			<density type="math">911</density>
			<c1 type="math">109</c1>
			<c2 type="math">106</c2>
		</material>
		<material id="3" name="glandular" type="Mooney-Rivlin">
			<k>425000.0</k>
			<pressure_model>default</pressure_model>
			<density type="math">911</density>
			<c1 type="math">230</c1>
			<c2 type="math">195</c2>
		</material>
	</Material>
	<Mesh>
		<Nodes name="Object01">
			<node id="1">0.0,1.474514954580286e-15,0.0289899989998013</node>
			<node id="2">0.0,0.06957457063968628,0.007705784859658587</node>
			<node id="3">0.0,0.0,0.07</node>
			<node id="4">0.0,0.07350000000000001,0.0</node>
			<node id="5">0.0,-0.002,0.07</node>
			<node id="6">0.0,0.010751559933510405,0.03259664108851279</node>
			<node id="7">0.0,0.022014644585758684,0.03391831891468225</node>
			<node id="8">0.0,0.03330907935263512,0.03289868591370995</node>
			<node id="9">0.0,0.04415335309307189,0.029581211693407373</node>
			<node id="10">0.0,0.05408514620183097,0.024107328811512212</node>
			<node id="11">0.0,0.06267467798167899,0.016717139181799536</node>
			<node id="12">0.0,0.005282444688720984,0.031071556645134096</node>
			<node id="13">0.0,0.016348898930237235,0.033548954207158574</node>
			<node id="14">0.0,0.027688248765363188,0.03370078792057195</node>
			<node id="15">0.0,0.038817068206807005,0.03152058471911573</node>
			<node id="16">0.0,0.049260906725738254,0.027101292337932115</node>
			<node id="17">0.0,0.05857532997728092,0.0206306165222056</node>
			<node id="18">0.0,0.06636553512515683,0.012380347447955218</node>
			<node id="19">0.0,0.0677126324754535,0.01774822253759966</node>
			<node id="20">0.0,0.06440854593384172,0.027414215485550595</node>
<!-- ... 7103 like lines cut -->
		</Nodes>
		<Elements type="tri6" name="skin_part">
			<elem id="528">2,19,1231,28,1335,1336</elem>
			<elem id="529">19,2,1233,28,1337,1338</elem>
			<elem id="530">77,2,1231,80,1336,1339</elem>
			<elem id="531">2,79,1233,83,1340,1337</elem>
			<elem id="532">27,3,1315,37,1341,1342</elem>
			<elem id="533">3,27,1316,37,1343,1344</elem>
			<elem id="534">3,177,1315,223,1345,1341</elem>
			<elem id="535">222,3,1316,269,1344,1346</elem>
			<elem id="536">19,20,1009,29,1347,1348</elem>
			<elem id="537">20,19,1010,29,1349,1350</elem>
			<elem id="538">19,1009,1231,1348,1351,1335</elem>
			<elem id="539">1010,19,1233,1349,1338,1352</elem>
			<elem id="540">21,20,1177,30,1353,1354</elem>
			<elem id="541">20,21,1232,30,1355,1356</elem>
			<elem id="542">1009,20,1232,1347,1356,1357</elem>
			<elem id="543">20,1010,1177,1350,1358,1353</elem>
			<elem id="544">22,21,983,31,1359,1360</elem>
			<elem id="545">21,22,984,31,1361,1362</elem>
			<elem id="546">983,21,1177,1359,1354,1363</elem>
			<elem id="547">21,984,1232,1362,1364,1355</elem>
<!-- ... 847 like lines cut -->
		</Elements>
		<Elements type="tet10" name="glandular_part">
			<elem id="1824">3364,3375,3393,3418,3426,3427,3428,3429,3431,3430</elem>
			<elem id="1825">3364,3393,3382,3418,3428,3432,3433,3429,3430,3434</elem>
			<elem id="1826">3370,3381,462,3385,3435,3436,3437,3438,3440,3439</elem>
			<elem id="1827">519,3375,444,3388,3441,3442,795,3443,3445,3444</elem>
			<elem id="1828">3364,3375,3374,3393,3426,3446,3447,3428,3427,3448</elem>
			<elem id="1829">3364,3374,3382,3393,3447,3449,3433,3428,3448,3432</elem>
			<elem id="1830">523,3370,462,3385,3450,3437,878,3451,3438,3439</elem>
			<elem id="1831">3369,3393,3375,3418,3452,3427,3453,3454,3430,3431</elem>
			<elem id="1832">3375,3380,444,3388,3455,3456,3442,3445,3457,3444</elem>
			<elem id="1833">3382,3393,3369,3418,3432,3452,3458,3434,3430,3454</elem>
			<elem id="1834">3374,3393,521,3419,3448,3459,3460,3461,3463,3462</elem>
			<elem id="1835">448,450,521,3419,821,822,823,3464,3465,3462</elem>
			<elem id="1836">442,519,444,3388,794,795,792,3466,3443,3444</elem>
			<elem id="1837">442,3375,519,3388,3467,3441,794,3466,3445,3443</elem>
			<elem id="1838">482,3414,3381,3417,3468,3469,3470,3471,3473,3472</elem>
			<elem id="1839">482,3381,3378,3417,3470,3474,3475,3471,3472,3476</elem>
			<elem id="1840">506,462,3370,3381,892,3437,3477,3478,3436,3435</elem>
			<elem id="1841">3364,3374,3373,3382,3447,3479,3480,3433,3449,3481</elem>
			<elem id="1842">448,521,3393,3419,823,3459,3482,3464,3462,3463</elem>
			<elem id="1843">3394,3396,3368,3423,3483,3484,3485,3486,3488,3487</elem>
<!-- ... 870 like lines cut -->
		</Elements>
		<Elements type="tet10" name="adipose_part">
			<elem id="2714">1017,4253,471,4262,4343,4344,4345,4346,4348,4347</elem>
			<elem id="2715">472,4210,4186,4212,4349,4350,4351,4352,4354,4353</elem>
			<elem id="2716">1017,471,4253,4314,4345,4344,4343,4355,4357,4356</elem>
			<elem id="2717">2571,2662,2569,4249,2975,2974,2972,4358,4360,4359</elem>
			<elem id="2718">4213,4242,1185,4328,4361,4362,4363,4364,4366,4365</elem>
			<elem id="2719">4211,1185,4242,4328,4367,4362,4368,4369,4365,4366</elem>
			<elem id="2720">4201,4216,1099,4283,4370,4371,4372,4373,4375,4374</elem>
			<elem id="2721">511,534,4189,4209,931,4376,4377,4378,4380,4379</elem>
			<elem id="2722">2609,2627,2687,4257,3174,3176,3168,4381,4383,4382</elem>
			<elem id="2723">1017,519,471,4314,4384,806,4345,4355,4385,4357</elem>
			<elem id="2724">534,4189,4209,4263,4376,4379,4380,4386,4388,4387</elem>
			<elem id="2725">1190,4236,4279,4307,4389,4390,4391,4392,4394,4393</elem>
			<elem id="2726">1099,4216,4201,4230,4371,4370,4372,4395,4397,4396</elem>
			<elem id="2727">1070,1185,4213,4242,1779,4363,4398,4399,4362,4361</elem>
			<elem id="2728">1063,523,4241,4339,4400,4401,4402,4403,4405,4404</elem>
			<elem id="2729">2627,4193,2687,4257,4406,4407,3176,4383,4408,4382</elem>
			<elem id="2730">1076,4203,4252,4312,4409,4410,4411,4412,4414,4413</elem>
			<elem id="2731">1070,4213,1185,4328,4398,4363,1779,4415,4364,4365</elem>
			<elem id="2732">489,4213,4193,4296,4416,4417,4418,4419,4421,4420</elem>
			<elem id="2733">2571,2662,4249,4293,2975,4360,4358,4422,4424,4423</elem>
<!-- ... 3442 like lines cut -->
		</Elements>
		<Surface name="chest_part">
			<tri6 id="1">84,5,2743,130,2744,2745</tri6>
			<tri6 id="2">5,129,2730,176,2746,2747</tri6>
			<tri6 id="3">2707,5,2730,2748,2747,2749</tri6>
			<tri6 id="4">5,2707,2743,2748,2750,2744</tri6>
			<tri6 id="5">85,84,2558,131,2751,2752</tri6>
			<tri6 id="6">2558,84,2743,2751,2745,2753</tri6>
			<tri6 id="7">86,85,2727,132,2754,2755</tri6>
			<tri6 id="8">85,2558,2727,2752,2756,2754</tri6>
			<tri6 id="9">87,86,2656,133,2757,2758</tri6>
			<tri6 id="10">2656,86,2727,2757,2755,2759</tri6>
			<tri6 id="11">88,87,2564,134,2760,2761</tri6>
			<tri6 id="12">2564,87,2656,2760,2758,2762</tri6>
			<tri6 id="13">89,88,2701,135,2763,2764</tri6>
			<tri6 id="14">88,2564,2701,2761,2765,2763</tri6>
			<tri6 id="15">90,89,2732,136,2766,2767</tri6>
			<tri6 id="16">89,2701,2732,2764,2768,2766</tri6>
			<tri6 id="17">91,90,2553,137,2769,2770</tri6>
			<tri6 id="18">2553,90,2732,2769,2767,2771</tri6>
			<tri6 id="19">92,91,2714,138,2772,2773</tri6>
			<tri6 id="20">91,2553,2714,2770,2774,2772</tri6>
<!-- ... 409 like lines cut -->
		</Surface>
		<PartList name="Mass_damping">skin_part,glandular_part,adipose_part</PartList>
		<PartList name="gravitational_acceleration">skin_part,glandular_part,adipose_part</PartList>
	</Mesh>
	<MeshDomains>
		<ShellDomain name="skin_part" mat="skin">
			<shell_thickness>0.0001</shell_thickness>
		</ShellDomain>
		<SolidDomain name="glandular_part" mat="glandular" />
		<SolidDomain name="adipose_part" mat="adipose" />
	</MeshDomains>
	<MeshData>
		<NodeData name="density_map" node_set="Object01">
			<node lid="1">911.000000</node>
			<node lid="2">911.000000</node>
			<node lid="3">911.000000</node>
			<node lid="4">911.000000</node>
			<node lid="5">911.000000</node>
			<node lid="6">911.000000</node>
			<node lid="7">911.000000</node>
			<node lid="8">911.000000</node>
			<node lid="9">911.000000</node>
			<node lid="10">911.000000</node>
			<node lid="11">911.000000</node>
			<node lid="12">911.000000</node>
			<node lid="13">911.000000</node>
			<node lid="14">911.000000</node>
			<node lid="15">911.000000</node>
			<node lid="16">911.000000</node>
			<node lid="17">911.000000</node>
			<node lid="18">911.000000</node>
			<node lid="19">911.000000</node>
			<node lid="20">911.000000</node>
<!-- ... 7103 like lines cut -->
		</NodeData>
	</MeshData>
	<Loads>
		<body_load type="body force" elem_set="@part_list:gravitational_acceleration">
			<force lc="1">0,0,9.81</force>
		</body_load>
	</Loads>
	<Step>
		<step id="1" name="Step1">
			<Control>
				<analysis>STATIC</analysis>
				<time_steps>10.0</time_steps>
				<step_size>0.1</step_size>
				<plot_zero_state>0</plot_zero_state>
				<plot_range>0,-1</plot_range>
				<plot_level>PLOT_NEVER</plot_level>
				<output_level>OUTPUT_NEVER</output_level>
				<plot_stride>1</plot_stride>
				<output_stride>1</output_stride>
				<adaptor_re_solve>1</adaptor_re_solve>
				<time_stepper type="default">
					<max_retries>40.0</max_retries>
					<opt_iter>11.0</opt_iter>
					<dtmin>0.0</dtmin>
					<dtmax>0.1</dtmax>
					<aggressiveness>0.0</aggressiveness>
					<cutback>0.5</cutback>
					<dtforce>0.0</dtforce>
				</time_stepper>
				<solver type="solid">
					<symmetric_stiffness>symmetric</symmetric_stiffness>
					<equation_scheme>staggered</equation_scheme>
					<equation_order>default</equation_order>
					<optimize_bw>0.0</optimize_bw>
					<lstol>0.9</lstol>
					<lsmin>0.01</lsmin>
					<lsiter>5.0</lsiter>
					<ls_check_jacobians>0.0</ls_check_jacobians>
					<max_refs>15.0</max_refs>
					<check_zero_diagonal>0.0</check_zero_diagonal>
					<zero_diagonal_tol>0.0</zero_diagonal_tol>
					<force_partition>0.0</force_partition>
					<reform_each_time_step>1.0</reform_each_time_step>
					<reform_augment>0.0</reform_augment>
					<diverge_reform>1.0</diverge_reform>
					<min_residual>1e-20</min_residual>
					<max_residual>0.0</max_residual>
					<dtol>0.001</dtol>
					<etol>0.01</etol>
					<rtol>0.0</rtol>
					<rhoi>-2.0</rhoi>
					<alpha>1.0</alpha>
					<beta>0.25</beta>
					<gamma>0.25</gamma>
					<logSolve>0.0</logSolve>
					<arc_length>0.0</arc_length>
					<arc_length_scale>0.0</arc_length_scale>
					<qn_method type="BFGS">
						<max_ups>10.0</max_ups>
						<max_buffer_size>0.0</max_buffer_size>
						<cycle_buffer>1.0</cycle_buffer>
						<cmax>100000.0</cmax>
					</qn_method>
				</solver>
			</Control>
			<Boundary>
				<bc name="chest" type="zero displacement" node_set="@surface:chest_part">
					<x_dof>1</x_dof>
					<y_dof>1</y_dof>
					<z_dof>1</z_dof>
				</bc>
			</Boundary>
		</step>
		<step id="2" name="Step2">
			<Control>
				<analysis>DYNAMIC</analysis>
				<time_steps>120.0</time_steps>
				<step_size>0.01</step_size>
				<plot_zero_state>0</plot_zero_state>
				<plot_range>0,-1</plot_range>
				<plot_level>PLOT_MUST_POINTS</plot_level>
				<output_level>OUTPUT_MUST_POINTS</output_level>
				<plot_stride>1</plot_stride>
				<output_stride>1</output_stride>
				<adaptor_re_solve>1</adaptor_re_solve>
				<time_stepper type="default">
					<max_retries>20.0</max_retries>
					<opt_iter>11.0</opt_iter>
					<dtmin>0.0</dtmin>
					<dtmax lc="3">0.01</dtmax>
					<aggressiveness>0.0</aggressiveness>
					<cutback>0.5</cutback>
					<dtforce>0.0</dtforce>
				</time_stepper>
				<solver type="solid">
					<symmetric_stiffness>symmetric</symmetric_stiffness>
					<equation_scheme>staggered</equation_scheme>
					<equation_order>default</equation_order>
					<optimize_bw>0.0</optimize_bw>
					<lstol>0.9</lstol>
					<lsmin>0.01</lsmin>
					<lsiter>5.0</lsiter>
					<ls_check_jacobians>0.0</ls_check_jacobians>
					<max_refs>15.0</max_refs>
					<check_zero_diagonal>0.0</check_zero_diagonal>
					<zero_diagonal_tol>0.0</zero_diagonal_tol>
					<force_partition>0.0</force_partition>
					<reform_each_time_step>1.0</reform_each_time_step>
					<reform_augment>0.0</reform_augment>
					<diverge_reform>1.0</diverge_reform>
					<min_residual>1e-20</min_residual>
					<max_residual>0.0</max_residual>
					<dtol>0.001</dtol>
					<etol>0.01</etol>
					<rtol>0.0</rtol>
					<rhoi>-2.0</rhoi>
					<alpha>1.0</alpha>
					<beta>1.0</beta>
					<gamma>1.5</gamma>
					<logSolve>0.0</logSolve>
					<arc_length>0.0</arc_length>
					<arc_length_scale>0.0</arc_length_scale>
					<qn_method type="BFGS">
						<max_ups>10.0</max_ups>
						<max_buffer_size>0.0</max_buffer_size>
						<cycle_buffer>1.0</cycle_buffer>
						<cmax>100000.0</cmax>
					</qn_method>
				</solver>
			</Control>
			<Boundary>
				<bc name="parabolic_trajectory" type="prescribed displacement" node_set="@surface:chest_part">
					<dof>z</dof>
					<value lc="2">1</value>
					<relative>0</relative>
				</bc>
				<bc name="only_z_displacement" type="zero displacement" node_set="@surface:chest_part">
					<x_dof>1</x_dof>
					<y_dof>1</y_dof>
					<z_dof>0</z_dof>
				</bc>
			</Boundary>
			<Loads>
				<body_load type="mass damping" elem_set="@part_list:Mass_damping">
					<C>20</C>
				</body_load>
			</Loads>
		</step>
	</Step>
	<LoadData>
		<load_controller id="1" name="LC1" type="loadcurve">
			<interpolate>LINEAR</interpolate>
			<extend>CONSTANT</extend>
			<points>
				<pt>0.0,0.0</pt>
				<pt>0.1111111111111111,0.1111111111111111</pt>
				<pt>0.2222222222222222,0.2222222222222222</pt>
				<pt>0.3333333333333333,0.3333333333333333</pt>
				<pt>0.4444444444444444,0.4444444444444444</pt>
				<pt>0.5555555555555556,0.5555555555555556</pt>
				<pt>0.6666666666666666,0.6666666666666666</pt>
				<pt>0.7777777777777777,0.7777777777777777</pt>
				<pt>0.8888888888888888,0.8888888888888888</pt>
				<pt>1.0,1.0</pt>
			</points>
		</load_controller>
		<load_controller id="2" name="LC2" type="loadcurve">
			<interpolate>LINEAR</interpolate>
			<extend>CONSTANT</extend>
			<points>
				<pt>1.0,0.0</pt>
				<pt>1.0018060945639429,0.0007839999999999784</pt>
				<pt>1.0036121891278857,0.0015359999999999586</pt>
				<pt>1.0054182836918288,0.002256000000000027</pt>
				<pt>1.0072243782557717,0.002944000000000007</pt>
				<pt>1.0090304728197146,0.003599999999999988</pt>
				<pt>1.0108365673836575,0.004223999999999972</pt>
				<pt>1.0126426619476006,0.004816000000000028</pt>
				<pt>1.0144487565115434,0.005376000000000012</pt>
				<pt>1.0162548510754863,0.005903999999999996</pt>
				<pt>1.0180609456394292,0.006399999999999982</pt>
				<pt>1.019867040203372,0.006863999999999971</pt>
				<pt>1.0216731347673151,0.007296000000000013</pt>
				<pt>1.023479229331258,0.007696</pt>
				<pt>1.0252853238952009,0.008063999999999991</pt>
				<pt>1.0270914184591438,0.008399999999999982</pt>
				<pt>1.0288975130230869,0.008704000000000014</pt>
				<pt>1.0307036075870297,0.008976000000000003</pt>
				<pt>1.0325097021509726,0.009215999999999995</pt>
				<pt>1.0343157967149155,0.009423999999999991</pt>
<!-- ... 31 like lines cut -->
			</points>
		</load_controller>
		<load_controller id="3" name="LC3" type="loadcurve">
			<interpolate>LINEAR</interpolate>
			<extend>CONSTANT</extend>
			<points>
				<pt>1.0,0.01</pt>
				<pt>1.025,0.01</pt>
				<pt>1.0499999999999998,0.01</pt>
				<pt>1.0749999999999997,0.01</pt>
				<pt>1.0999999999999996,0.01</pt>
				<pt>1.1249999999999996,0.01</pt>
				<pt>1.1499999999999995,0.01</pt>
				<pt>1.1749999999999994,0.01</pt>
				<pt>1.1999999999999993,0.01</pt>
				<pt>1.2249999999999992,0.01</pt>
				<pt>1.2499999999999991,0.01</pt>
				<pt>1.274999999999999,0.01</pt>
				<pt>1.299999999999999,0.01</pt>
				<pt>1.3249999999999988,0.01</pt>
				<pt>1.3499999999999988,0.01</pt>
				<pt>1.3749999999999987,0.01</pt>
				<pt>1.3999999999999986,0.01</pt>
				<pt>1.4249999999999985,0.01</pt>
				<pt>1.4499999999999984,0.01</pt>
				<pt>1.4749999999999983,0.01</pt>
<!-- ... 29 like lines cut -->
			</points>
		</load_controller>
	</LoadData>
	<Output>
		<plotfile type="vtk" file="runs\overnight_suite\output\baseline_fast.vtk">
			<var type="displacement" />
			<var type="stress" />
			<var type="relative volume" />
		</plotfile>
	</Output>
</febio_spec>