<?xml version='1.0' encoding='ISO-8859-1'?>
<febio_spec version="4.0">
	<Module type="solid" />
	<Globals>
		<Constants>
			<T>0</T>
			<P>0</P>
			<R>8.31446</R>
			<Fc>96485.3</Fc>
		</Constants>
	</Globals>
	<Material>
		<material id="1" name="skin" type="Mooney-Rivlin">
			<k>480000.0</k>
			<pressure_model>default</pressure_model>
			<density type="math">1100</density>
			<c1 type="math">1200</c1>
			<c2 type="math">1200</c2>
		</material>
		<material id="2" name="adipose" type="Mooney-Rivlin">
			<k>425000.0</k>
			<pressure_model>default</pressure_model>
			<density type="math">911</density>
			<c1 type="math">109</c1>
			<c2 type="math">106</c2>
		</material>
		<material id="3" name="glandular" type="Mooney-Rivlin">
			<k>425000.0</k>
			<pressure_model>default</pressure_model>
			<density type="math">911+(35)*exp(-((X-0.02)^2+(Y-0.045)^2+(Z-0)^2)/(0.004^2))+(35)*exp(-((X-0.025)^2+(Y-0.047)^2+(Z-0.002)^2)/(0.004^2))+(35)*exp(-((X-0.018)^2+(Y-0.043)^2+(Z+0.002)^2)/(0.004^2))</density>
			<c1 type="math">230+(70)*exp(-((X-0.02)^2+(Y-0.045)^2+(Z-0)^2)/(0.004^2))+(70)*exp(-((X-0.025)^2+(Y-0.047)^2+(Z-0.002)^2)/(0.004^2))+(70)*exp(-((X-0.018)^2+(Y-0.043)^2+(Z+0.002)^2)/(0.004^2))</c1>
			<c2 type="math">195+(55)*exp(-((X-0.02)^2+(Y-0.045)^2+(Z-0)^2)/(0.004^2))+(55)*exp(-((X-0.025)^2+(Y-0.047)^2+(Z-0.002)^2)/(0.004^2))+(55)*exp(-((X-0.018)^2+(Y-0.043)^2+(Z+0.002)^2)/(0.004^2))</c2>
		</material>
	</Material>
	<Mesh>
		<Nodes name="Object01">
			<node id="1">0.0,1.474514954580286e-15,0.0289899989998013</node>
			<node id="2">0.0,0.06957457063968628,0.007705784859658587</node>
			<node id="3">0.0,0.0,0.07</node>
			<node id="4">0.0,0.07350000000000001,0.0</node>
			<node id="5">0.0,-0.002,0.07</node>
			<node id="6">0.0,0.006757936706529185,0.031543471636518494</node>
			<node id="7">0.0,0.013792554131725041,0.03318788299534245</node>
			<node id="8">0.0,0.020982145465839718,0.03389478290644794</node>
			<node id="9">0.0,0.028202322675837728,0.03365194120466854</node>
			<node id="10">0.0,0.035328168558559275,0.03246355932513727</node>
			<node id="11">0.0,0.04223639794912157,0.030350197613723668</node>
			<node id="12">0.0,0.04880749069321866,0.027348419609877873</node>
			<node id="13">0.0,0.05492775948049482,0.023510159456189627</node>
			<node id="14">0.0,0.0604913167631439,0.018901823379189508</node>
			<node id="15">0.0,0.0654019067298257,0.013603140786787708</node>
			<node id="16">0.0,0.003336939378722141,0.03037796782001592</node>
			<node id="17">0.0,0.010248179171326026,0.03248146385400959</node>
			<node id="18">0.0,0.01737571455431521,0.033659670287592314</node>
			<node id="19">0.0,0.024596231132548062,0.033892202821577594</node>
			<node id="20">0.0,0.03178480583141202,0.033175038381054095</node>
<!-- ... 18729 like lines cut -->
		</Nodes>
		<Elements type="tri6" name="skin_part">
			<elem id="1040">27,2,2555,41,2724,2725</elem>
			<elem id="1041">2,27,2558,41,2726,2727</elem>
			<elem id="1042">113,2,2558,118,2727,2728</elem>
			<elem id="1043">2,117,2555,123,2729,2724</elem>
			<elem id="1044">40,3,2683,55,2730,2731</elem>
			<elem id="1045">3,40,2684,55,2732,2733</elem>
			<elem id="1046">3,261,2683,329,2734,2730</elem>
			<elem id="1047">328,3,2684,397,2733,2735</elem>
			<elem id="1048">27,28,2028,42,2736,2737</elem>
			<elem id="1049">28,27,2029,42,2738,2739</elem>
			<elem id="1050">27,2028,2558,2737,2740,2726</elem>
			<elem id="1051">2029,27,2555,2738,2725,2741</elem>
			<elem id="1052">28,29,2556,43,2742,2743</elem>
			<elem id="1053">29,28,2559,43,2744,2745</elem>
			<elem id="1054">2028,28,2556,2736,2743,2746</elem>
			<elem id="1055">28,2029,2559,2739,2747,2744</elem>
			<elem id="1056">30,29,1989,44,2748,2749</elem>
			<elem id="1057">29,30,1990,44,2750,2751</elem>
			<elem id="1058">1989,29,2559,2748,2745,2752</elem>
			<elem id="1059">29,1990,2556,2751,2753,2742</elem>
<!-- ... 1715 like lines cut -->
		</Elements>
		<Elements type="tet10" name="glandular_part">
			<elem id="3678">418,6990,6993,7079,7163,7164,7165,7166,7168,7167</elem>
			<elem id="3679">6972,6997,768,7038,7169,7170,7171,7172,7174,7173</elem>
			<elem id="3680">754,7036,6961,7109,7175,7176,7177,7178,7180,7179</elem>
			<elem id="3681">6949,7039,6960,7042,7181,7182,7183,7184,7186,7185</elem>
			<elem id="3682">7000,7027,903,7094,7187,7188,7189,7190,7192,7191</elem>
			<elem id="3683">407,451,968,6968,549,7193,7194,7195,7197,7196</elem>
			<elem id="3684">6994,6996,6977,7012,7198,7199,7200,7201,7203,7202</elem>
			<elem id="3685">6949,6978,6974,7024,7204,7205,7206,7207,7209,7208</elem>
			<elem id="3686">6983,803,7113,7119,7210,7211,7212,7213,7215,7214</elem>
			<elem id="3687">6970,7007,866,7017,7216,7217,7218,7219,7221,7220</elem>
			<elem id="3688">6976,7011,949,7148,7222,7223,7224,7225,7227,7226</elem>
			<elem id="3689">6943,7033,7042,7063,7228,7229,7230,7231,7233,7232</elem>
			<elem id="3690">6949,6978,6997,7039,7204,7234,7235,7181,7237,7236</elem>
			<elem id="3691">6988,7063,6943,7086,7238,7231,7239,7240,7242,7241</elem>
			<elem id="3692">7008,7113,803,7119,7243,7211,7244,7245,7214,7215</elem>
			<elem id="3693">418,7030,6990,7079,7246,7247,7163,7166,7248,7168</elem>
			<elem id="3694">6943,6988,7033,7063,7239,7249,7228,7231,7238,7233</elem>
			<elem id="3695">768,6997,6972,7048,7170,7169,7171,7250,7252,7251</elem>
			<elem id="3696">826,903,7000,7027,1817,7189,7253,7254,7188,7187</elem>
			<elem id="3697">6949,6999,6978,7039,7255,7256,7204,7181,7257,7237</elem>
<!-- ... 2530 like lines cut -->
		</Elements>
		<Elements type="tet10" name="adipose_part">
			<elem id="6228">9641,9890,2319,10110,10218,10219,10220,10221,10223,10222</elem>
			<elem id="6229">9641,2319,9761,10110,10220,10224,10225,10221,10222,10226</elem>
			<elem id="6230">2285,9675,9604,9988,10227,10228,10229,10230,10232,10231</elem>
			<elem id="6231">9526,9802,9885,10050,10233,10234,10235,10236,10238,10237</elem>
			<elem id="6232">9528,9640,9572,10005,10239,10240,10241,10242,10244,10243</elem>
			<elem id="6233">5333,9702,9592,9807,10245,10246,10247,10248,10250,10249</elem>
			<elem id="6234">2083,9706,2717,9726,10251,10252,3575,10253,10255,10254</elem>
			<elem id="6235">714,9930,5450,10072,10256,10257,10258,10259,10261,10260</elem>
			<elem id="6236">9546,9667,9607,9829,10262,10263,10264,10265,10267,10266</elem>
			<elem id="6237">2296,2209,9694,9759,4232,10268,10269,10270,10272,10271</elem>
			<elem id="6238">9745,9808,2331,10146,10273,10274,10275,10276,10278,10277</elem>
			<elem id="6239">815,9825,9730,10163,10279,10280,10281,10282,10284,10283</elem>
			<elem id="6240">9616,9694,2209,9759,10285,10268,10286,10287,10271,10272</elem>
			<elem id="6241">2083,9601,9706,9726,10288,10289,10251,10253,10290,10255</elem>
			<elem id="6242">2060,9710,9917,9962,10291,10292,10293,10294,10296,10295</elem>
			<elem id="6243">2575,9593,9683,9917,10297,10298,10299,10300,10302,10301</elem>
			<elem id="6244">5481,9875,9854,9949,10303,10304,10305,10306,10308,10307</elem>
			<elem id="6245">5498,9702,5438,9796,10309,10310,6378,10311,10313,10312</elem>
			<elem id="6246">5448,9654,5450,10072,10314,10315,6572,10316,10317,10260</elem>
			<elem id="6247">5364,5356,9696,9868,6507,10318,10319,10320,10322,10321</elem>
<!-- ... 9544 like lines cut -->
		</Elements>
		<Surface name="chest_part">
			<tri6 id="1">124,5,5234,192,5622,5623</tri6>
			<tri6 id="2">5,191,5578,260,5624,5625</tri6>
			<tri6 id="3">5234,5,5578,5622,5625,5626</tri6>
			<tri6 id="4">125,124,5564,193,5627,5628</tri6>
			<tri6 id="5">124,5234,5564,5623,5629,5627</tri6>
			<tri6 id="6">126,125,5211,194,5630,5631</tri6>
			<tri6 id="7">5211,125,5564,5630,5628,5632</tri6>
			<tri6 id="8">127,126,5620,195,5633,5634</tri6>
			<tri6 id="9">126,5211,5620,5631,5635,5633</tri6>
			<tri6 id="10">128,127,5614,196,5636,5637</tri6>
			<tri6 id="11">127,5508,5614,5638,5639,5636</tri6>
			<tri6 id="12">5508,127,5620,5638,5634,5640</tri6>
			<tri6 id="13">129,128,5226,197,5641,5642</tri6>
			<tri6 id="14">5226,128,5614,5641,5637,5643</tri6>
			<tri6 id="15">130,129,5567,198,5644,5645</tri6>
			<tri6 id="16">129,5226,5567,5642,5646,5644</tri6>
			<tri6 id="17">131,130,5219,199,5647,5648</tri6>
			<tri6 id="18">5219,130,5567,5647,5645,5649</tri6>
			<tri6 id="19">132,131,5571,200,5650,5651</tri6>
			<tri6 id="20">131,5219,5571,5648,5652,5650</tri6>
<!-- ... 883 like lines cut -->
		</Surface>
		<PartList name="Mass_damping">skin_part,glandular_part,adipose_part</PartList>
		<PartList name="gravitational_acceleration">skin_part,glandular_part,adipose_part</PartList>
	</Mesh>
	<MeshDomains>
		<ShellDomain name="skin_part" mat="skin">
			<shell_thickness>0.0001</shell_thickness>
		</ShellDomain>
		<SolidDomain name="glandular_part" mat="glandular" />
		<SolidDomain name="adipose_part" mat="adipose" />
	</MeshDomains>
	<MeshData>
		<NodeData name="density_map" node_set="Object01">
			<node lid="1">911.000000</node>
			<node lid="2">911.000000</node>
			<node lid="3">911.000000</node>
			<node lid="4">911.000000</node>
			<node lid="5">911.000000</node>
			<node lid="6">911.000000</node>
			<node lid="7">911.000000</node>
			<node lid="8">911.000000</node>
			<node lid="9">911.000000</node>
			<node lid="10">911.000000</node>
			<node lid="11">911.000000</node>
			<node lid="12">911.000000</node>
			<node lid="13">911.000000</node>
			<node lid="14">911.000000</node>
			<node lid="15">911.000000</node>
			<node lid="16">911.000000</node>
			<node lid="17">911.000000</node>
			<node lid="18">911.000000</node>
			<node lid="19">911.000000</node>
			<node lid="20">911.000000</node>
<!-- ... 18729 like lines cut -->
		</NodeData>
	</MeshData>
	<Loads>
		<body_load type="body force" elem_set="@part_list:gravitational_acceleration">
			<force lc="1">0,0,9.81</force>
		</body_load>
	</Loads>
	<Step>
		<step id="1" name="Step1">
			<Control>
				<analysis>STATIC</analysis>
				<time_steps>10.0</time_steps>
				<step_size>0.1</step_size>
				<plot_zero_state>0</plot_zero_state>
				<plot_range>0,-1</plot_range>
				<plot_level>PLOT_NEVER</plot_level>
				<output_level>OUTPUT_NEVER</output_level>
				<plot_stride>1</plot_stride>
				<output_stride>1</output_stride>
				<adaptor_re_solve>1</adaptor_re_solve>
				<time_stepper type="default">
					<max_retries>40.0</max_retries>
					<opt_iter>11.0</opt_iter>
					<dtmin>0.0</dtmin>
					<dtmax>0.1</dtmax>
					<aggressiveness>0.0</aggressiveness>
					<cutback>0.5</cutback>
					<dtforce>0.0</dtforce>
				</time_stepper>
				<solver type="solid">
					<symmetric_stiffness>symmetric</symmetric_stiffness>
					<equation_scheme>staggered</equation_scheme>
					<equation_order>default</equation_order>
					<optimize_bw>0.0</optimize_bw>
					<lstol>0.9</lstol>
					<lsmin>0.01</lsmin>
					<lsiter>5.0</lsiter>
					<ls_check_jacobians>0.0</ls_check_jacobians>
					<max_refs>15.0</max_refs>
					<check_zero_diagonal>0.0</check_zero_diagonal>
					<zero_diagonal_tol>0.0</zero_diagonal_tol>
					<force_partition>0.0</force_partition>
					<reform_each_time_step>1.0</reform_each_time_step>
					<reform_augment>0.0</reform_augment>
					<diverge_reform>1.0</diverge_reform>
					<min_residual>1e-20</min_residual>
					<max_residual>0.0</max_residual>
					<dtol>0.001</dtol>
					<etol>0.01</etol>
					<rtol>0.0</rtol>
					<rhoi>-2.0</rhoi>
					<alpha>1.0</alpha>
					<beta>0.25</beta>
					<gamma>0.25</gamma>
					<logSolve>0.0</logSolve>
					<arc_length>0.0</arc_length>
					<arc_length_scale>0.0</arc_length_scale>
					<qn_method type="BFGS">
						<max_ups>10.0</max_ups>
						<max_buffer_size>0.0</max_buffer_size>
						<cycle_buffer>1.0</cycle_buffer>
						<cmax>100000.0</cmax>
					</qn_method>
				</solver>
			</Control>
			<Boundary>
				<bc name="chest" type="zero displacement" node_set="@surface:chest_part">
					<x_dof>1</x_dof>
					<y_dof>1</y_dof>
					<z_dof>1</z_dof>
				</bc>
			</Boundary>
		</step>
		<step id="2" name="Step2">
			<Control>
				<analysis>DYNAMIC</analysis>
				<time_steps>120.0</time_steps>
				<step_size>0.01</step_size>
				<plot_zero_state>0</plot_zero_state>
				<plot_range>0,-1</plot_range>
				<plot_level>PLOT_MUST_POINTS</plot_level>
				<output_level>OUTPUT_MUST_POINTS</output_level>
				<plot_stride>1</plot_stride>
				<output_stride>1</output_stride>
				<adaptor_re_solve>1</adaptor_re_solve>
				<time_stepper type="default">
					<max_retries>20.0</max_retries>
					<opt_iter>11.0</opt_iter>
					<dtmin>0.0</dtmin>
					<dtmax lc="3">0.01</dtmax>
					<aggressiveness>0.0</aggressiveness>
					<cutback>0.5</cutback>
					<dtforce>0.0</dtforce>
				</time_stepper>
				<solver type="solid">
					<symmetric_stiffness>symmetric</symmetric_stiffness>
					<equation_scheme>staggered</equation_scheme>
					<equation_order>default</equation_order>
					<optimize_bw>0.0</optimize_bw>
					<lstol>0.9</lstol>
					<lsmin>0.01</lsmin>
					<lsiter>5.0</lsiter>
					<ls_check_jacobians>0.0</ls_check_jacobians>
					<max_refs>15.0</max_refs>
					<check_zero_diagonal>0.0</check_zero_diagonal>
					<zero_diagonal_tol>0.0</zero_diagonal_tol>
					<force_partition>0.0</force_partition>
					<reform_each_time_step>1.0</reform_each_time_step>
					<reform_augment>0.0</reform_augment>
					<diverge_reform>1.0</diverge_reform>
					<min_residual>1e-20</min_residual>
					<max_residual>0.0</max_residual>
					<dtol>0.001</dtol>
					<etol>0.01</etol>
					<rtol>0.0</rtol>
					<rhoi>-2.0</rhoi>
					<alpha>1.0</alpha>
					<beta>1.0</beta>
					<gamma>1.5</gamma>
					<logSolve>0.0</logSolve>
					<arc_length>0.0</arc_length>
					<arc_length_scale>0.0</arc_length_scale>
					<qn_method type="BFGS">
						<max_ups>10.0</max_ups>
						<max_buffer_size>0.0</max_buffer_size>
						<cycle_buffer>1.0</cycle_buffer>
						<cmax>100000.0</cmax>
					</qn_method>
				</solver>
			</Control>
			<Boundary>
				<bc name="parabolic_trajectory" type="prescribed displacement" node_set="@surface:chest_part">
					<dof>z</dof>
					<value lc="2">1</value>
					<relative>0</relative>
				</bc>
				<bc name="only_z_displacement" type="zero displacement" node_set="@surface:chest_part">
					<x_dof>1</x_dof>
					<y_dof>1</y_dof>
					<z_dof>0</z_dof>
				</bc>
			</Boundary>
			<Loads>
				<body_load type="mass damping" elem_set="@part_list:Mass_damping">
					<C>20</C>
				</body_load>
			</Loads>
		</step>
	</Step>
	<LoadData>
		<load_controller id="1" name="LC1" type="loadcurve">
			<interpolate>LINEAR</interpolate>
			<extend>CONSTANT</extend>
			<points>
				<pt>0.0,0.0</pt>
				<pt>0.1111111111111111,0.1111111111111111</pt>
				<pt>0.2222222222222222,0.2222222222222222</pt>
				<pt>0.3333333333333333,0.3333333333333333</pt>
				<pt>0.4444444444444444,0.4444444444444444</pt>
				<pt>0.5555555555555556,0.5555555555555556</pt>
				<pt>0.6666666666666666,0.6666666666666666</pt>
				<pt>0.7777777777777777,0.7777777777777777</pt>
				<pt>0.8888888888888888,0.8888888888888888</pt>
				<pt>1.0,1.0</pt>
			</points>
		</load_controller>
		<load_controller id="2" name="LC2" type="loadcurve">
			<interpolate>LINEAR</interpolate>
			<extend>CONSTANT</extend>
			<points>
				<pt>1.0,0.0</pt>
				<pt>1.0018060945639429,0.0007839999999999784</pt>
				<pt>1.0036121891278857,0.0015359999999999586</pt>
				<pt>1.0054182836918288,0.002256000000000027</pt>
				<pt>1.0072243782557717,0.002944000000000007</pt>
				<pt>1.0090304728197146,0.003599999999999988</pt>
				<pt>1.0108365673836575,0.004223999999999972</pt>
				<pt>1.0126426619476006,0.004816000000000028</pt>
				<pt>1.0144487565115434,0.005376000000000012</pt>
				<pt>1.0162548510754863,0.005903999999999996</pt>
				<pt>1.0180609456394292,0.006399999999999982</pt>
				<pt>1.019867040203372,0.006863999999999971</pt>
				<pt>1.0216731347673151,0.007296000000000013</pt>
				<pt>1.023479229331258,0.007696</pt>
				<pt>1.0252853238952009,0.008063999999999991</pt>
				<pt>1.0270914184591438,0.008399999999999982</pt>
				<pt>1.0288975130230869,0.008704000000000014</pt>
				<pt>1.0307036075870297,0.008976000000000003</pt>
				<pt>1.0325097021509726,0.009215999999999995</pt>
				<pt>1.0343157967149155,0.009423999999999991</pt>
<!-- ... 31 like lines cut -->
			</points>
		</load_controller>
		<load_controller id="3" name="LC3" type="loadcurve">
			<interpolate>LINEAR</interpolate>
			<extend>CONSTANT</extend>
			<points>
				<pt>1.0,0.01</pt>
				<pt>1.025,0.01</pt>
				<pt>1.0499999999999998,0.01</pt>
				<pt>1.0749999999999997,0.01</pt>
				<pt>1.0999999999999996,0.01</pt>
				<pt>1.1249999999999996,0.01</pt>
				<pt>1.1499999999999995,0.01</pt>
				<pt>1.1749999999999994,0.01</pt>
				<pt>1.1999999999999993,0.01</pt>
				<pt>1.2249999999999992,0.01</pt>
				<pt>1.2499999999999991,0.01</pt>
				<pt>1.274999999999999,0.01</pt>
				<pt>1.299999999999999,0.01</pt>
				<pt>1.3249999999999988,0.01</pt>
				<pt>1.3499999999999988,0.01</pt>
				<pt>1.3749999999999987,0.01</pt>
				<pt>1.3999999999999986,0.01</pt>
				<pt>1.4249999999999985,0.01</pt>
				<pt>1.4499999999999984,0.01</pt>
				<pt>1.4749999999999983,0.01</pt>
<!-- ... 29 like lines cut -->
			</points>
		</load_controller>
	</LoadData>
	<Output>
		<plotfile type="vtk" file="runs\overnight_suite\output\manual_lobules_dense.vtk">
			<var type="displacement" />
			<var type="stress" />
			<var type="relative volume" />
		</plotfile>
	</Output>
</febio_spec>