<?xml version='1.0' encoding='ISO-8859-1'?>
<febio_spec version="4.0">
	<Module type="solid" />
	<Globals>
		<Constants>
			<T>0</T>
			<P>0</P>
			<R>8.31446</R>
			<Fc>96485.3</Fc>
		</Constants>
	</Globals>
	<Material>
		<material id="1" name="skin" type="Mooney-Rivlin">
			<k>480000.0</k>
			<pressure_model>default</pressure_model>
			<density type="math">1100</density>
			<c1 type="math">1200</c1>
			<c2 type="math">1200</c2>
		</material>
		<material id="2" name="adipose" type="Mooney-Rivlin">
			<k>425000.0</k>
			<pressure_model>default</pressure_model>
			<density type="math">911+(12)*(1-exp(-((X-0)^2+(Y-0)^2+(Z-0)^2)/(0.05^2)))</density>
			<c1 type="math">109+(10)*(1-exp(-((X-0)^2+(Y-0)^2+(Z-0)^2)/(0.05^2)))</c1>
			<c2 type="math">106+(8)*(1-exp(-((X-0)^2+(Y-0)^2+(Z-0)^2)/(0.05^2)))</c2>
		</material>
		<material id="3" name="glandular" type="Mooney-Rivlin">
			<k>425000.0</k>
			<pressure_model>default</pressure_model>
			<density type="math">911</density>
			<c1 type="math">230</c1>
			<c2 type="math">195</c2>
		</material>
	</Material>
	<Mesh>
		<Nodes name="Object01">
			<node id="1">0.0,1.474514954580286e-15,0.0289899989998013</node>
			<node id="2">0.0,0.06957457063968628,0.007705784859658587</node>
			<node id="3">0.0,0.0,0.07</node>
			<node id="4">0.0,0.07350000000000001,0.0</node>
			<node id="5">0.0,-0.002,0.07</node>
			<node id="6">0.0,0.007450925286663591,0.031749415285060284</node>
			<node id="7">0.0,0.015222029841528019,0.03340489100525022</node>
			<node id="8">0.0,0.0231506798703216,0.03392178033932913</node>
			<node id="9">0.0,0.031070944464697294,0.03328926581945481</node>
			<node id="10">0.0,0.038817068206807054,0.0315205847191157</node>
			<node id="11">0.0,0.04622694010120655,0.02865275202327017</node>
			<node id="12">0.0,0.05314548623623277,0.024745785778178365</node>
			<node id="13">0.0,0.059427915173184645,0.01988145103281772</node>
			<node id="14">0.0,0.06494274814375377,0.01416154865869482</node>
			<node id="15">0.0,0.0036754982714077046,0.030504620023896204</node>
			<node id="16">0.0,0.011306502092457786,0.03271786346868309</node>
			<node id="17">0.0,0.019176995611699894,0.03380689865008957</node>
			<node id="18">0.0,0.027122265021103067,0.03374893422328183</node>
			<node id="19">0.0,0.03497603160167019,0.03254518326866537</node>
			<node id="20">0.0,0.04257393160699721,0.03022083790451986</node>
<!-- ... 15095 like lines cut -->
		</Nodes>
		<Elements type="tri6" name="skin_part">
			<elem id="908">2,25,1765,37,2363,2364</elem>
			<elem id="909">25,2,2121,37,2365,2366</elem>
			<elem id="910">101,2,1765,106,2364,2367</elem>
			<elem id="911">2,105,2121,111,2368,2365</elem>
			<elem id="912">36,3,2335,49,2369,2370</elem>
			<elem id="913">3,36,2336,49,2371,2372</elem>
			<elem id="914">3,235,2335,296,2373,2369</elem>
			<elem id="915">295,3,2336,357,2372,2374</elem>
			<elem id="916">25,26,2090,38,2375,2376</elem>
			<elem id="917">26,25,2360,38,2377,2378</elem>
			<elem id="918">1765,25,2090,2363,2376,2379</elem>
			<elem id="919">25,2121,2122,2366,2380,2381</elem>
			<elem id="920">25,2122,2360,2381,2382,2377</elem>
			<elem id="921">27,26,1746,39,2383,2384</elem>
			<elem id="922">26,27,1747,39,2385,2386</elem>
			<elem id="923">1746,26,2360,2383,2378,2387</elem>
			<elem id="924">26,1747,2090,2386,2388,2375</elem>
			<elem id="925">28,27,2284,40,2389,2390</elem>
			<elem id="926">27,28,2290,40,2391,2392</elem>
			<elem id="927">27,1746,2284,2384,2393,2389</elem>
<!-- ... 1480 like lines cut -->
		</Elements>
		<Elements type="tet10" name="glandular_part">
			<elem id="3138">703,5944,6026,6052,6077,6078,6079,6080,6082,6081</elem>
			<elem id="3139">5945,5961,5948,5971,6083,6084,6085,6086,6088,6087</elem>
			<elem id="3140">5902,5948,5961,5971,6089,6084,6090,6091,6087,6088</elem>
			<elem id="3141">5902,5948,5945,5961,6089,6085,6092,6090,6084,6083</elem>
			<elem id="3142">5961,5971,5945,6015,6088,6086,6083,6093,6095,6094</elem>
			<elem id="3143">5956,5971,5944,6010,6096,6097,6098,6099,6101,6100</elem>
			<elem id="3144">719,5928,842,5981,6102,6103,1613,6104,6106,6105</elem>
			<elem id="3145">659,6009,5935,6038,6107,6108,6109,6110,6112,6111</elem>
			<elem id="3146">5911,5926,5920,5972,6113,6114,6115,6116,6118,6117</elem>
			<elem id="3147">5904,5944,5971,6010,6119,6097,6120,6121,6100,6101</elem>
			<elem id="3148">5961,5985,5971,6015,6122,6123,6088,6093,6124,6095</elem>
			<elem id="3149">5920,5921,5975,6005,6125,6126,6127,6128,6130,6129</elem>
			<elem id="3150">399,6002,5938,6007,6131,6132,6133,6134,6136,6135</elem>
			<elem id="3151">5904,5971,5924,6010,6120,6137,6138,6121,6101,6139</elem>
			<elem id="3152">5945,5971,5948,6015,6086,6087,6085,6094,6095,6140</elem>
			<elem id="3153">835,5920,5977,5979,6141,6142,6143,6144,6146,6145</elem>
			<elem id="3154">5944,5918,6026,6052,6147,6148,6078,6082,6149,6081</elem>
			<elem id="3155">5923,5968,5939,6042,6150,6151,6152,6153,6155,6154</elem>
			<elem id="3156">833,5926,5940,6006,6156,6157,6158,6159,6161,6160</elem>
			<elem id="3157">767,5920,717,6016,6162,6163,1605,6164,6166,6165</elem>
<!-- ... 2067 like lines cut -->
		</Elements>
		<Elements type="tet10" name="adipose_part">
			<elem id="5225">8053,760,8134,8151,8486,8487,8488,8489,8491,8490</elem>
			<elem id="5226">681,8329,8145,8393,8492,8493,8494,8495,8497,8496</elem>
			<elem id="5227">754,4610,4595,8053,8498,5483,8499,8500,8502,8501</elem>
			<elem id="5228">8071,8302,1860,8427,8503,8504,8505,8506,8508,8507</elem>
			<elem id="5229">674,8145,681,8329,8509,8494,1395,8510,8493,8492</elem>
			<elem id="5230">1767,8063,8174,8250,8511,8512,8513,8514,8516,8515</elem>
			<elem id="5231">754,4610,8053,8118,8498,8502,8500,8517,8519,8518</elem>
			<elem id="5232">859,8134,760,8151,8520,8487,1696,8521,8490,8491</elem>
			<elem id="5233">4571,4755,4589,8447,5363,5362,5361,8522,8524,8523</elem>
			<elem id="5234">8069,8092,1920,8179,8525,8526,8527,8528,8530,8529</elem>
			<elem id="5235">8017,8106,7995,8194,8531,8532,8533,8534,8536,8535</elem>
			<elem id="5236">1912,8037,8178,8318,8537,8538,8539,8540,8542,8541</elem>
			<elem id="5237">8017,7995,8106,8216,8533,8532,8531,8543,8545,8544</elem>
			<elem id="5238">8036,8168,4626,8181,8546,8547,8548,8549,8551,8550</elem>
			<elem id="5239">1967,8098,8069,8179,8552,8553,8554,8555,8556,8528</elem>
			<elem id="5240">2018,8083,8167,8198,8557,8558,8559,8560,8562,8561</elem>
			<elem id="5241">8081,8123,8023,8439,8563,8564,8565,8566,8568,8567</elem>
			<elem id="5242">2277,8148,2260,8211,8569,8570,4100,8571,8573,8572</elem>
			<elem id="5243">2194,8047,1806,8142,8574,8575,3071,8576,8578,8577</elem>
			<elem id="5244">4738,8036,4626,8181,8579,8548,5539,8580,8549,8550</elem>
<!-- ... 7575 like lines cut -->
		</Elements>
		<Surface name="chest_part">
			<tri6 id="1">112,5,4510,173,4838,4839</tri6>
			<tri6 id="2">5,172,4533,234,4840,4841</tri6>
			<tri6 id="3">4510,5,4533,4838,4841,4842</tri6>
			<tri6 id="4">113,112,4802,174,4843,4844</tri6>
			<tri6 id="5">112,4510,4802,4839,4845,4843</tri6>
			<tri6 id="6">114,113,4529,175,4846,4847</tri6>
			<tri6 id="7">4529,113,4802,4846,4844,4848</tri6>
			<tri6 id="8">115,114,4827,176,4849,4850</tri6>
			<tri6 id="9">114,4529,4827,4847,4851,4849</tri6>
			<tri6 id="10">116,115,4516,177,4852,4853</tri6>
			<tri6 id="11">4516,115,4827,4852,4850,4854</tri6>
			<tri6 id="12">117,116,4824,178,4855,4856</tri6>
			<tri6 id="13">116,4516,4824,4853,4857,4855</tri6>
			<tri6 id="14">118,117,4530,179,4858,4859</tri6>
			<tri6 id="15">4530,117,4824,4858,4856,4860</tri6>
			<tri6 id="16">119,118,4818,180,4861,4862</tri6>
			<tri6 id="17">118,4530,4818,4859,4863,4861</tri6>
			<tri6 id="18">120,119,4506,181,4864,4865</tri6>
			<tri6 id="19">4506,119,4818,4864,4862,4866</tri6>
			<tri6 id="20">121,120,4786,182,4867,4868</tri6>
<!-- ... 710 like lines cut -->
		</Surface>
		<PartList name="Mass_damping">skin_part,glandular_part,adipose_part</PartList>
		<PartList name="gravitational_acceleration">skin_part,glandular_part,adipose_part</PartList>
	</Mesh>
	<MeshDomains>
		<ShellDomain name="skin_part" mat="skin">
			<shell_thickness>0.0001</shell_thickness>
		</ShellDomain>
		<SolidDomain name="glandular_part" mat="glandular" />
		<SolidDomain name="adipose_part" mat="adipose" />
	</MeshDomains>
	<MeshData>
		<NodeData name="density_map" node_set="Object01">
			<node lid="1">914.425963</node>
			<node lid="2">921.309699</node>
			<node lid="3">921.309699</node>
			<node lid="4">911.000000</node>
			<node lid="5">921.312401</node>
			<node lid="6">915.158031</node>
			<node lid="7">916.000296</node>
			<node lid="8">916.888024</node>
			<node lid="9">917.764433</node>
			<node lid="10">918.585998</node>
			<node lid="11">919.324304</node>
			<node lid="12">919.965071</node>
			<node lid="13">920.505404</node>
			<node lid="14">920.950363</node>
			<node lid="15">914.774080</node>
			<node lid="16">915.569535</node>
			<node lid="17">916.442292</node>
			<node lid="18">917.330712</node>
			<node lid="19">918.184201</node>
			<node lid="20">918.966755</node>
<!-- ... 15095 like lines cut -->
		</NodeData>
	</MeshData>
	<Loads>
		<body_load type="body force" elem_set="@part_list:gravitational_acceleration">
			<force lc="1">0,0,9.81</force>
		</body_load>
	</Loads>
	<Step>
		<step id="1" name="Step1">
			<Control>
				<analysis>STATIC</analysis>
				<time_steps>10.0</time_steps>
				<step_size>0.1</step_size>
				<plot_zero_state>0</plot_zero_state>
				<plot_range>0,-1</plot_range>
				<plot_level>PLOT_NEVER</plot_level>
				<output_level>OUTPUT_NEVER</output_level>
				<plot_stride>1</plot_stride>
				<output_stride>1</output_stride>
				<adaptor_re_solve>1</adaptor_re_solve>
				<time_stepper type="default">
					<max_retries>40.0</max_retries>
					<opt_iter>11.0</opt_iter>
					<dtmin>0.0</dtmin>
					<dtmax>0.1</dtmax>
					<aggressiveness>0.0</aggressiveness>
					<cutback>0.5</cutback>
					<dtforce>0.0</dtforce>
				</time_stepper>
				<solver type="solid">
					<symmetric_stiffness>symmetric</symmetric_stiffness>
					<equation_scheme>staggered</equation_scheme>
					<equation_order>default</equation_order>
					<optimize_bw>0.0</optimize_bw>
					<lstol>0.9</lstol>
					<lsmin>0.01</lsmin>
					<lsiter>5.0</lsiter>
					<ls_check_jacobians>0.0</ls_check_jacobians>
					<max_refs>15.0</max_refs>
					<check_zero_diagonal>0.0</check_zero_diagonal>
					<zero_diagonal_tol>0.0</zero_diagonal_tol>
					<force_partition>0.0</force_partition>
					<reform_each_time_step>1.0</reform_each_time_step>
					<reform_augment>0.0</reform_augment>
					<diverge_reform>1.0</diverge_reform>
					<min_residual>1e-20</min_residual>
					<max_residual>0.0</max_residual>
					<dtol>0.001</dtol>
					<etol>0.01</etol>
					<rtol>0.0</rtol>
					<rhoi>-2.0</rhoi>
					<alpha>1.0</alpha>
					<beta>0.25</beta>
					<gamma>0.25</gamma>
					<logSolve>0.0</logSolve>
					<arc_length>0.0</arc_length>
					<arc_length_scale>0.0</arc_length_scale>
					<qn_method type="BFGS">
						<max_ups>10.0</max_ups>
						<max_buffer_size>0.0</max_buffer_size>
						<cycle_buffer>1.0</cycle_buffer>
						<cmax>100000.0</cmax>
					</qn_method>
				</solver>
			</Control>
			<Boundary>
				<bc name="chest" type="zero displacement" node_set="@surface:chest_part">
					<x_dof>1</x_dof>
					<y_dof>1</y_dof>
					<z_dof>1</z_dof>
				</bc>
			</Boundary>
		</step>
		<step id="2" name="Step2">
			<Control>
				<analysis>DYNAMIC</analysis>
				<time_steps>120.0</time_steps>
				<step_size>0.01</step_size>
				<plot_zero_state>0</plot_zero_state>
				<plot_range>0,-1</plot_range>
				<plot_level>PLOT_MUST_POINTS</plot_level>
				<output_level>OUTPUT_MUST_POINTS</output_level>
				<plot_stride>1</plot_stride>
				<output_stride>1</output_stride>
				<adaptor_re_solve>1</adaptor_re_solve>
				<time_stepper type="default">
					<max_retries>20.0</max_retries>
					<opt_iter>11.0</opt_iter>
					<dtmin>0.0</dtmin>
					<dtmax lc="3">0.01</dtmax>
					<aggressiveness>0.0</aggressiveness>
					<cutback>0.5</cutback>
					<dtforce>0.0</dtforce>
				</time_stepper>
				<solver type="solid">
					<symmetric_stiffness>symmetric</symmetric_stiffness>
					<equation_scheme>staggered</equation_scheme>
					<equation_order>default</equation_order>
					<optimize_bw>0.0</optimize_bw>
					<lstol>0.9</lstol>
					<lsmin>0.01</lsmin>
					<lsiter>5.0</lsiter>
					<ls_check_jacobians>0.0</ls_check_jacobians>
					<max_refs>15.0</max_refs>
					<check_zero_diagonal>0.0</check_zero_diagonal>
					<zero_diagonal_tol>0.0</zero_diagonal_tol>
					<force_partition>0.0</force_partition>
					<reform_each_time_step>1.0</reform_each_time_step>
					<reform_augment>0.0</reform_augment>
					<diverge_reform>1.0</diverge_reform>
					<min_residual>1e-20</min_residual>
					<max_residual>0.0</max_residual>
					<dtol>0.001</dtol>
					<etol>0.01</etol>
					<rtol>0.0</rtol>
					<rhoi>-2.0</rhoi>
					<alpha>1.0</alpha>
					<beta>1.0</beta>
					<gamma>1.5</gamma>
					<logSolve>0.0</logSolve>
					<arc_length>0.0</arc_length>
					<arc_length_scale>0.0</arc_length_scale>
					<qn_method type="BFGS">
						<max_ups>10.0</max_ups>
						<max_buffer_size>0.0</max_buffer_size>
						<cycle_buffer>1.0</cycle_buffer>
						<cmax>100000.0</cmax>
					</qn_method>
				</solver>
			</Control>
			<Boundary>
				<bc name="parabolic_trajectory" type="prescribed displacement" node_set="@surface:chest_part">
					<dof>z</dof>
					<value lc="2">1</value>
					<relative>0</relative>
				</bc>
				<bc name="only_z_displacement" type="zero displacement" node_set="@surface:chest_part">
					<x_dof>1</x_dof>
					<y_dof>1</y_dof>
					<z_dof>0</z_dof>
				</bc>
			</Boundary>
			<Loads>
				<body_load type="mass damping" elem_set="@part_list:Mass_damping">
					<C>20</C>
				</body_load>
			</Loads>
		</step>
	</Step>
	<LoadData>
		<load_controller id="1" name="LC1" type="loadcurve">
			<interpolate>LINEAR</interpolate>
			<extend>CONSTANT</extend>
			<points>
				<pt>0.0,0.0</pt>
				<pt>0.1111111111111111,0.1111111111111111</pt>
				<pt>0.2222222222222222,0.2222222222222222</pt>
				<pt>0.3333333333333333,0.3333333333333333</pt>
				<pt>0.4444444444444444,0.4444444444444444</pt>
				<pt>0.5555555555555556,0.5555555555555556</pt>
				<pt>0.6666666666666666,0.6666666666666666</pt>
				<pt>0.7777777777777777,0.7777777777777777</pt>
				<pt>0.8888888888888888,0.8888888888888888</pt>
				<pt>1.0,1.0</pt>
			</points>
		</load_controller>
		<load_controller id="2" name="LC2" type="loadcurve">
			<interpolate>LINEAR</interpolate>
			<extend>CONSTANT</extend>
			<points>
				<pt>1.0,0.0</pt>
				<pt>1.0018060945639429,0.0007839999999999784</pt>
				<pt>1.0036121891278857,0.0015359999999999586</pt>
				<pt>1.0054182836918288,0.002256000000000027</pt>
				<pt>1.0072243782557717,0.002944000000000007</pt>
				<pt>1.0090304728197146,0.003599999999999988</pt>
				<pt>1.0108365673836575,0.004223999999999972</pt>
				<pt>1.0126426619476006,0.004816000000000028</pt>
				<pt>1.0144487565115434,0.005376000000000012</pt>
				<pt>1.0162548510754863,0.005903999999999996</pt>
				<pt>1.0180609456394292,0.006399999999999982</pt>
				<pt>1.019867040203372,0.006863999999999971</pt>
				<pt>1.0216731347673151,0.007296000000000013</pt>
				<pt>1.023479229331258,0.007696</pt>
				<pt>1.0252853238952009,0.008063999999999991</pt>
				<pt>1.0270914184591438,0.008399999999999982</pt>
				<pt>1.0288975130230869,0.008704000000000014</pt>
				<pt>1.0307036075870297,0.008976000000000003</pt>
				<pt>1.0325097021509726,0.009215999999999995</pt>
				<pt>1.0343157967149155,0.009423999999999991</pt>
<!-- ... 31 like lines cut -->
			</points>
		</load_controller>
		<load_controller id="3" name="LC3" type="loadcurve">
			<interpolate>LINEAR</interpolate>
			<extend>CONSTANT</extend>
			<points>
				<pt>1.0,0.01</pt>
				<pt>1.025,0.01</pt>
				<pt>1.0499999999999998,0.01</pt>
				<pt>1.0749999999999997,0.01</pt>
				<pt>1.0999999999999996,0.01</pt>
				<pt>1.1249999999999996,0.01</pt>
				<pt>1.1499999999999995,0.01</pt>
				<pt>1.1749999999999994,0.01</pt>
				<pt>1.1999999999999993,0.01</pt>
				<pt>1.2249999999999992,0.01</pt>
				<pt>1.2499999999999991,0.01</pt>
				<pt>1.274999999999999,0.01</pt>
				<pt>1.299999999999999,0.01</pt>
				<pt>1.3249999999999988,0.01</pt>
				<pt>1.3499999999999988,0.01</pt>
				<pt>1.3749999999999987,0.01</pt>
				<pt>1.3999999999999986,0.01</pt>
				<pt>1.4249999999999985,0.01</pt>
				<pt>1.4499999999999984,0.01</pt>
				<pt>1.4749999999999983,0.01</pt>
<!-- ... 29 like lines cut -->
			</points>
		</load_controller>
	</LoadData>
	<Output>
		<plotfile type="vtk" file="runs\radial_testcases\radial_alpha_low\output\radial_alpha_low.vtk">
			<var type="displacement" />
			<var type="stress" />
			<var type="relative volume" />
		</plotfile>
	</Output>
</febio_spec>